version 2
run General-0-20191204-15:10:40-28750
attr configname General
attr datetime 20191204-15:10:40
attr experiment General
attr inifile omnetpp.ini
attr iterationvars ""
attr iterationvarsf ""
attr measurement ""
attr network small_network
attr processid 28750
attr repetition 0
attr replication #0
attr resultdir results
attr runnumber 0
attr seedset 0
param **.scheduler.tick 80ns
param **.scheduler.numPeriods 1
param **.scheduler.period[0].cycle_ticks sec_to_tick(0.005s)
param **.scheduler.oscillator.max_drift 2800ppm
param **.scheduler.oscillator.drift_change uniform(-75ppm,75ppm)
param **.precission 16ns
param **.gateControlList.period "\"period[0]\""
param **.node1.phy[*].mac.address "\"0A-00-00-00-00-01\""
param **.node1.numApps 7
param **.node1.app[0].typename "\"IEEE8021QTrafficSourceApp\""
param **.node1.app[0].destAddress "\"0A-00-00-00-00-02\""
param **.node1.app[0].payload "intWithUnit(uniform(1500Byte, 1500Byte))"
param **.node1.app[0].sendInterval 500us
param **.node1.app[0].priority 7
param **.node1.app[0].vid 7
param **.node1.app[1].typename "\"IEEE8021QTrafficSourceApp\""
param **.node1.app[1].destAddress "\"0A-00-00-00-00-02\""
param **.node1.app[1].payload "intWithUnit(uniform(1500Byte, 1500Byte))"
param **.node1.app[1].sendInterval 500us
param **.node1.app[1].priority 5
param **.node1.app[1].vid 7
param **.node1.app[2].typename "\"IEEE8021QTrafficSourceApp\""
param **.node1.app[2].destAddress "\"0A-00-00-00-00-02\""
param **.node1.app[2].payload "intWithUnit(uniform(1500Byte, 1500Byte))"
param **.node1.app[2].sendInterval 500us
param **.node1.app[2].priority 4
param **.node1.app[2].vid 7
param **.node1.app[3].typename "\"IEEE8021QTrafficSourceApp\""
param **.node1.app[3].destAddress "\"0A-00-00-00-00-02\""
param **.node1.app[3].payload "intWithUnit(uniform(1500Byte, 1500Byte))"
param **.node1.app[3].sendInterval 500us
param **.node1.app[3].priority 3
param **.node1.app[3].vid 7
param **.node1.app[4].typename "\"IEEE8021QTrafficSourceApp\""
param **.node1.app[4].destAddress "\"0A-00-00-00-00-02\""
param **.node1.app[4].payload "intWithUnit(uniform(1500Byte, 1500Byte))"
param **.node1.app[4].sendInterval 500us
param **.node1.app[4].priority 2
param **.node1.app[4].vid 7
param **.node1.app[5].typename "\"IEEE8021QTrafficSourceApp\""
param **.node1.app[5].destAddress "\"0A-00-00-00-00-02\""
param **.node1.app[5].payload "intWithUnit(uniform(1500Byte, 1500Byte))"
param **.node1.app[5].sendInterval 500us
param **.node1.app[5].priority 1
param **.node1.app[5].vid 7
param **.node1.app[6].typename "\"BGTrafficSourceApp\""
param **.node1.app[6].destAddress "\"0A-00-00-00-00-02\""
param **.node1.app[6].payload "intWithUnit(uniform(1500Byte, 1500Byte))"
param **.node1.app[6].sendInterval 5us
param **.node1.phy[*].taggedVIDs "\"7\""
param **.node2.phy[*].mac.address "\"0A-00-00-00-00-02\""
param **.node2.numApps 2
param **.node2.app[0].typename "\"BGTrafficSinkApp\""
param **.node2.app[0].srcAddress "\"0A-00-00-00-00-01\""
param **.node2.app[1].typename "\"IEEE8021QTrafficSinkApp\""
param **.node2.app[1].srcAddress "\"0A-00-00-00-00-01\""
param **.node2.bgIn.destination_gates "\"app[0].in, app[1].in\""
param **.switch1.phy[0].taggedVIDs "\"0,1,2,3,4,5,6,7\""
param **.switch1.phy[1].untaggedVID 7
param **.switch1.phy[1].taggedVIDs "\"0,1,2,3,4,5,6,7\""
param **.switch1.phy[*].shaper.transmissionSelectionAlgorithm[6].typename "\"CreditBasedShaper\""
param **.switch1.phy[*].shaper.transmissionSelectionAlgorithm[6].srClass "\"B\""
param **.switch1.phy[*].shaper.gateControlList.controlList "\"o,o,o,o,o,C,C,o:0;o,o,C,C,C,C,C,o:0.002;C,C,C,C,C,o,o,o:0.003;o,C,C,C,C,C,C,o:0.004\""

scalar small_network.node1.ethg$o.channel packetsDiscarded:count 0
attr interpolationmode none
attr source constant1(messageDiscarded)
scalar small_network.node1.ethg$o.channel utilization:last 0.99222739507383
attr source timeavg(channelBusy)
scalar small_network.node1.ethg$o.channel packets:count 811
attr interpolationmode none
attr source constant1(messageSent)
scalar small_network.node1.ethg$o.channel packetBytes:sum 1240826
attr interpolationmode none
attr source packetBytes(messageSent)
attr unit B
scalar small_network.node1.ethg$o.channel throughput:last 9934428.3820223
attr source sumPerDuration(packetBits(messageSent))
attr unit bps
scalar small_network.node2.ethg$o.channel packetsDiscarded:count 0
attr interpolationmode none
attr source constant1(messageDiscarded)
scalar small_network.node2.ethg$o.channel utilization:last 0.49820386650765
attr source timeavg(channelBusy)
scalar small_network.node2.ethg$o.channel packets:count 2
attr interpolationmode none
attr source constant1(messageSent)
scalar small_network.node2.ethg$o.channel packetBytes:sum 3052
attr interpolationmode none
attr source packetBytes(messageSent)
attr unit B
scalar small_network.node2.ethg$o.channel throughput:last 6634773.5940576
attr source sumPerDuration(packetBits(messageSent))
attr unit bps
scalar small_network.switch1.ethg$o[0].channel packetsDiscarded:count 0
attr interpolationmode none
attr source constant1(messageDiscarded)
scalar small_network.switch1.ethg$o[0].channel utilization:last 0.37847222222222
attr source timeavg(channelBusy)
scalar small_network.switch1.ethg$o[0].channel packets:count 2
attr interpolationmode none
attr source constant1(messageSent)
scalar small_network.switch1.ethg$o[0].channel packetBytes:sum 3052
attr interpolationmode none
attr source packetBytes(messageSent)
attr unit B
scalar small_network.switch1.ethg$o[0].channel throughput:last 4668094.2184154
attr source sumPerDuration(packetBits(messageSent))
attr unit bps
scalar small_network.switch1.ethg$o[1].channel packetsDiscarded:count 0
attr interpolationmode none
attr source constant1(messageDiscarded)
scalar small_network.switch1.ethg$o[1].channel utilization:last 0.9910055119237
attr source timeavg(channelBusy)
scalar small_network.switch1.ethg$o[1].channel packets:count 810
attr interpolationmode none
attr source constant1(messageSent)
scalar small_network.switch1.ethg$o[1].channel packetBytes:sum 1239296
attr interpolationmode none
attr source packetBytes(messageSent)
attr unit B
scalar small_network.switch1.ethg$o[1].channel throughput:last 9922194.6022968
attr source sumPerDuration(packetBits(messageSent))
attr unit bps
scalar small_network.node1.phy[0].shaper.queue[0] dropped:sum 0
attr source dropped
attr title "Dropped frames, sum"
attr unit packets
scalar small_network.node1.phy[0].shaper.queue[0] rxPk:count 200001
attr source rxPk
attr title "Received Packets, count"
attr unit packets
scalar small_network.node1.phy[0].shaper.queue[0] rxBytes:sum(packetBytes) 303601518
attr interpolationmode none
attr source rxPk
attr title "Received Bytes, sum(packetBytes)"
attr unit B
statistic small_network.node1.phy[0].shaper.queue[0] rxBytes:histogram(packetBytes)
field count 200001
field mean 1518
field stddev 0
field min 1518
field max 1518
field sum 303601518
field sqrsum 460867104324
attr interpolationmode none
attr source rxPk
attr title "Received Bytes, histogram(packetBytes)"
attr unit B
bin	-inf	0
bin	1517	0
bin	1518	200001
bin	1519	0
statistic small_network.node1.phy[0].shaper.queue[0] rxLatency:stats
field count 200001
field mean 0
field stddev 0
field min 0
field max 0
field sum 0
field sqrsum 0
attr interpolationmode none
attr source messageAge(rxPk)
attr title "End-to-end latency (received), stats"
attr unit s
statistic small_network.node1.phy[0].shaper.queue[0] rxLatency:histogram
field count 200001
field mean 0
field stddev 0
field min 0
field max 0
field sum 0
field sqrsum 0
attr interpolationmode none
attr source messageAge(rxPk)
attr title "End-to-end latency (received), histogram"
attr unit s
bin	-inf	0
bin	-0.5	0
bin	-0.48	0
bin	-0.46	0
bin	-0.44	0
bin	-0.42	0
bin	-0.4	0
bin	-0.38	0
bin	-0.36	0
bin	-0.34	0
bin	-0.32	0
bin	-0.3	0
bin	-0.28	0
bin	-0.26	0
bin	-0.24	0
bin	-0.22	0
bin	-0.2	0
bin	-0.18	0
bin	-0.16	0
bin	-0.14	0
bin	-0.12	0
bin	-0.1	0
bin	-0.08	0
bin	-0.06	0
bin	-0.04	0
bin	-0.02	0
bin	0	200001
bin	0.02	0
bin	0.04	0
bin	0.06	0
bin	0.08	0
bin	0.1	0
bin	0.12	0
bin	0.14	0
bin	0.16	0
bin	0.18	0
bin	0.2	0
bin	0.22	0
bin	0.24	0
bin	0.26	0
bin	0.28	0
bin	0.3	0
bin	0.32	0
bin	0.34	0
bin	0.36	0
bin	0.38	0
bin	0.4	0
bin	0.42	0
bin	0.44	0
bin	0.46	0
bin	0.48	0
bin	0.5	0
scalar small_network.node1.phy[0].shaper.queue[0] txPk:count 0
attr source txPk
attr title "Transmitted Packets, count"
attr unit packets
scalar small_network.node1.phy[0].shaper.queue[0] txBytes:sum(packetBytes) 0
attr interpolationmode none
attr source txPk
attr title "Transmitted Bytes, sum(packetBytes)"
attr unit B
statistic small_network.node1.phy[0].shaper.queue[0] txBytes:histogram(packetBytes)
field count 0
field mean -nan
field stddev -nan
field min -nan
field max -nan
field sum 0
field sqrsum 0
attr interpolationmode none
attr source txPk
attr title "Transmitted Bytes, histogram(packetBytes)"
attr unit B
bin	-inf	0
bin	0	0
bin	1	0
statistic small_network.node1.phy[0].shaper.queue[0] txLatency:stats
field count 0
field mean -nan
field stddev -nan
field min -nan
field max -nan
field sum 0
field sqrsum 0
attr interpolationmode none
attr source messageAge(txPk)
attr title "End-to-end latency (transmitted), stats"
attr unit s
statistic small_network.node1.phy[0].shaper.queue[0] txLatency:histogram
field count 0
field mean -nan
field stddev -nan
field min -nan
field max -nan
field sum 0
field sqrsum 0
attr interpolationmode none
attr source messageAge(txPk)
attr title "End-to-end latency (transmitted), histogram"
attr unit s
bin	-inf	0
bin	0	0
bin	1	0
scalar small_network.node1.phy[0].shaper.queue[1] dropped:sum 0
attr source dropped
attr title "Dropped frames, sum"
attr unit packets
scalar small_network.node1.phy[0].shaper.queue[1] rxPk:count 2001
attr source rxPk
attr title "Received Packets, count"
attr unit packets
scalar small_network.node1.phy[0].shaper.queue[1] rxBytes:sum(packetBytes) 3045522
attr interpolationmode none
attr source rxPk
attr title "Received Bytes, sum(packetBytes)"
attr unit B
statistic small_network.node1.phy[0].shaper.queue[1] rxBytes:histogram(packetBytes)
field count 2001
field mean 1522
field stddev 0
field min 1522
field max 1522
field sum 3045522
field sqrsum 4635284484
attr interpolationmode none
attr source rxPk
attr title "Received Bytes, histogram(packetBytes)"
attr unit B
bin	-inf	0
bin	1521	0
bin	1522	2001
bin	1523	0
statistic small_network.node1.phy[0].shaper.queue[1] rxLatency:stats
field count 2001
field mean 0
field stddev 0
field min 0
field max 0
field sum 0
field sqrsum 0
attr interpolationmode none
attr source messageAge(rxPk)
attr title "End-to-end latency (received), stats"
attr unit s
statistic small_network.node1.phy[0].shaper.queue[1] rxLatency:histogram
field count 2001
field mean 0
field stddev 0
field min 0
field max 0
field sum 0
field sqrsum 0
attr interpolationmode none
attr source messageAge(rxPk)
attr title "End-to-end latency (received), histogram"
attr unit s
bin	-inf	0
bin	-0.5	0
bin	-0.48	0
bin	-0.46	0
bin	-0.44	0
bin	-0.42	0
bin	-0.4	0
bin	-0.38	0
bin	-0.36	0
bin	-0.34	0
bin	-0.32	0
bin	-0.3	0
bin	-0.28	0
bin	-0.26	0
bin	-0.24	0
bin	-0.22	0
bin	-0.2	0
bin	-0.18	0
bin	-0.16	0
bin	-0.14	0
bin	-0.12	0
bin	-0.1	0
bin	-0.08	0
bin	-0.06	0
bin	-0.04	0
bin	-0.02	0
bin	0	2001
bin	0.02	0
bin	0.04	0
bin	0.06	0
bin	0.08	0
bin	0.1	0
bin	0.12	0
bin	0.14	0
bin	0.16	0
bin	0.18	0
bin	0.2	0
bin	0.22	0
bin	0.24	0
bin	0.26	0
bin	0.28	0
bin	0.3	0
bin	0.32	0
bin	0.34	0
bin	0.36	0
bin	0.38	0
bin	0.4	0
bin	0.42	0
bin	0.44	0
bin	0.46	0
bin	0.48	0
bin	0.5	0
scalar small_network.node1.phy[0].shaper.queue[1] txPk:count 0
attr source txPk
attr title "Transmitted Packets, count"
attr unit packets
scalar small_network.node1.phy[0].shaper.queue[1] txBytes:sum(packetBytes) 0
attr interpolationmode none
attr source txPk
attr title "Transmitted Bytes, sum(packetBytes)"
attr unit B
statistic small_network.node1.phy[0].shaper.queue[1] txBytes:histogram(packetBytes)
field count 0
field mean -nan
field stddev -nan
field min -nan
field max -nan
field sum 0
field sqrsum 0
attr interpolationmode none
attr source txPk
attr title "Transmitted Bytes, histogram(packetBytes)"
attr unit B
bin	-inf	0
bin	0	0
bin	1	0
statistic small_network.node1.phy[0].shaper.queue[1] txLatency:stats
field count 0
field mean -nan
field stddev -nan
field min -nan
field max -nan
field sum 0
field sqrsum 0
attr interpolationmode none
attr source messageAge(txPk)
attr title "End-to-end latency (transmitted), stats"
attr unit s
statistic small_network.node1.phy[0].shaper.queue[1] txLatency:histogram
field count 0
field mean -nan
field stddev -nan
field min -nan
field max -nan
field sum 0
field sqrsum 0
attr interpolationmode none
attr source messageAge(txPk)
attr title "End-to-end latency (transmitted), histogram"
attr unit s
bin	-inf	0
bin	0	0
bin	1	0
scalar small_network.node1.phy[0].shaper.queue[2] dropped:sum 0
attr source dropped
attr title "Dropped frames, sum"
attr unit packets
scalar small_network.node1.phy[0].shaper.queue[2] rxPk:count 2001
attr source rxPk
attr title "Received Packets, count"
attr unit packets
scalar small_network.node1.phy[0].shaper.queue[2] rxBytes:sum(packetBytes) 3045522
attr interpolationmode none
attr source rxPk
attr title "Received Bytes, sum(packetBytes)"
attr unit B
statistic small_network.node1.phy[0].shaper.queue[2] rxBytes:histogram(packetBytes)
field count 2001
field mean 1522
field stddev 0
field min 1522
field max 1522
field sum 3045522
field sqrsum 4635284484
attr interpolationmode none
attr source rxPk
attr title "Received Bytes, histogram(packetBytes)"
attr unit B
bin	-inf	0
bin	1521	0
bin	1522	2001
bin	1523	0
statistic small_network.node1.phy[0].shaper.queue[2] rxLatency:stats
field count 2001
field mean 0
field stddev 0
field min 0
field max 0
field sum 0
field sqrsum 0
attr interpolationmode none
attr source messageAge(rxPk)
attr title "End-to-end latency (received), stats"
attr unit s
statistic small_network.node1.phy[0].shaper.queue[2] rxLatency:histogram
field count 2001
field mean 0
field stddev 0
field min 0
field max 0
field sum 0
field sqrsum 0
attr interpolationmode none
attr source messageAge(rxPk)
attr title "End-to-end latency (received), histogram"
attr unit s
bin	-inf	0
bin	-0.5	0
bin	-0.48	0
bin	-0.46	0
bin	-0.44	0
bin	-0.42	0
bin	-0.4	0
bin	-0.38	0
bin	-0.36	0
bin	-0.34	0
bin	-0.32	0
bin	-0.3	0
bin	-0.28	0
bin	-0.26	0
bin	-0.24	0
bin	-0.22	0
bin	-0.2	0
bin	-0.18	0
bin	-0.16	0
bin	-0.14	0
bin	-0.12	0
bin	-0.1	0
bin	-0.08	0
bin	-0.06	0
bin	-0.04	0
bin	-0.02	0
bin	0	2001
bin	0.02	0
bin	0.04	0
bin	0.06	0
bin	0.08	0
bin	0.1	0
bin	0.12	0
bin	0.14	0
bin	0.16	0
bin	0.18	0
bin	0.2	0
bin	0.22	0
bin	0.24	0
bin	0.26	0
bin	0.28	0
bin	0.3	0
bin	0.32	0
bin	0.34	0
bin	0.36	0
bin	0.38	0
bin	0.4	0
bin	0.42	0
bin	0.44	0
bin	0.46	0
bin	0.48	0
bin	0.5	0
scalar small_network.node1.phy[0].shaper.queue[2] txPk:count 0
attr source txPk
attr title "Transmitted Packets, count"
attr unit packets
scalar small_network.node1.phy[0].shaper.queue[2] txBytes:sum(packetBytes) 0
attr interpolationmode none
attr source txPk
attr title "Transmitted Bytes, sum(packetBytes)"
attr unit B
statistic small_network.node1.phy[0].shaper.queue[2] txBytes:histogram(packetBytes)
field count 0
field mean -nan
field stddev -nan
field min -nan
field max -nan
field sum 0
field sqrsum 0
attr interpolationmode none
attr source txPk
attr title "Transmitted Bytes, histogram(packetBytes)"
attr unit B
bin	-inf	0
bin	0	0
bin	1	0
statistic small_network.node1.phy[0].shaper.queue[2] txLatency:stats
field count 0
field mean -nan
field stddev -nan
field min -nan
field max -nan
field sum 0
field sqrsum 0
attr interpolationmode none
attr source messageAge(txPk)
attr title "End-to-end latency (transmitted), stats"
attr unit s
statistic small_network.node1.phy[0].shaper.queue[2] txLatency:histogram
field count 0
field mean -nan
field stddev -nan
field min -nan
field max -nan
field sum 0
field sqrsum 0
attr interpolationmode none
attr source messageAge(txPk)
attr title "End-to-end latency (transmitted), histogram"
attr unit s
bin	-inf	0
bin	0	0
bin	1	0
scalar small_network.node1.phy[0].shaper.queue[3] dropped:sum 0
attr source dropped
attr title "Dropped frames, sum"
attr unit packets
scalar small_network.node1.phy[0].shaper.queue[3] rxPk:count 2001
attr source rxPk
attr title "Received Packets, count"
attr unit packets
scalar small_network.node1.phy[0].shaper.queue[3] rxBytes:sum(packetBytes) 3045522
attr interpolationmode none
attr source rxPk
attr title "Received Bytes, sum(packetBytes)"
attr unit B
statistic small_network.node1.phy[0].shaper.queue[3] rxBytes:histogram(packetBytes)
field count 2001
field mean 1522
field stddev 0
field min 1522
field max 1522
field sum 3045522
field sqrsum 4635284484
attr interpolationmode none
attr source rxPk
attr title "Received Bytes, histogram(packetBytes)"
attr unit B
bin	-inf	0
bin	1521	0
bin	1522	2001
bin	1523	0
statistic small_network.node1.phy[0].shaper.queue[3] rxLatency:stats
field count 2001
field mean 0
field stddev 0
field min 0
field max 0
field sum 0
field sqrsum 0
attr interpolationmode none
attr source messageAge(rxPk)
attr title "End-to-end latency (received), stats"
attr unit s
statistic small_network.node1.phy[0].shaper.queue[3] rxLatency:histogram
field count 2001
field mean 0
field stddev 0
field min 0
field max 0
field sum 0
field sqrsum 0
attr interpolationmode none
attr source messageAge(rxPk)
attr title "End-to-end latency (received), histogram"
attr unit s
bin	-inf	0
bin	-0.5	0
bin	-0.48	0
bin	-0.46	0
bin	-0.44	0
bin	-0.42	0
bin	-0.4	0
bin	-0.38	0
bin	-0.36	0
bin	-0.34	0
bin	-0.32	0
bin	-0.3	0
bin	-0.28	0
bin	-0.26	0
bin	-0.24	0
bin	-0.22	0
bin	-0.2	0
bin	-0.18	0
bin	-0.16	0
bin	-0.14	0
bin	-0.12	0
bin	-0.1	0
bin	-0.08	0
bin	-0.06	0
bin	-0.04	0
bin	-0.02	0
bin	0	2001
bin	0.02	0
bin	0.04	0
bin	0.06	0
bin	0.08	0
bin	0.1	0
bin	0.12	0
bin	0.14	0
bin	0.16	0
bin	0.18	0
bin	0.2	0
bin	0.22	0
bin	0.24	0
bin	0.26	0
bin	0.28	0
bin	0.3	0
bin	0.32	0
bin	0.34	0
bin	0.36	0
bin	0.38	0
bin	0.4	0
bin	0.42	0
bin	0.44	0
bin	0.46	0
bin	0.48	0
bin	0.5	0
scalar small_network.node1.phy[0].shaper.queue[3] txPk:count 0
attr source txPk
attr title "Transmitted Packets, count"
attr unit packets
scalar small_network.node1.phy[0].shaper.queue[3] txBytes:sum(packetBytes) 0
attr interpolationmode none
attr source txPk
attr title "Transmitted Bytes, sum(packetBytes)"
attr unit B
statistic small_network.node1.phy[0].shaper.queue[3] txBytes:histogram(packetBytes)
field count 0
field mean -nan
field stddev -nan
field min -nan
field max -nan
field sum 0
field sqrsum 0
attr interpolationmode none
attr source txPk
attr title "Transmitted Bytes, histogram(packetBytes)"
attr unit B
bin	-inf	0
bin	0	0
bin	1	0
statistic small_network.node1.phy[0].shaper.queue[3] txLatency:stats
field count 0
field mean -nan
field stddev -nan
field min -nan
field max -nan
field sum 0
field sqrsum 0
attr interpolationmode none
attr source messageAge(txPk)
attr title "End-to-end latency (transmitted), stats"
attr unit s
statistic small_network.node1.phy[0].shaper.queue[3] txLatency:histogram
field count 0
field mean -nan
field stddev -nan
field min -nan
field max -nan
field sum 0
field sqrsum 0
attr interpolationmode none
attr source messageAge(txPk)
attr title "End-to-end latency (transmitted), histogram"
attr unit s
bin	-inf	0
bin	0	0
bin	1	0
scalar small_network.node1.phy[0].shaper.queue[4] dropped:sum 0
attr source dropped
attr title "Dropped frames, sum"
attr unit packets
scalar small_network.node1.phy[0].shaper.queue[4] rxPk:count 2001
attr source rxPk
attr title "Received Packets, count"
attr unit packets
scalar small_network.node1.phy[0].shaper.queue[4] rxBytes:sum(packetBytes) 3045522
attr interpolationmode none
attr source rxPk
attr title "Received Bytes, sum(packetBytes)"
attr unit B
statistic small_network.node1.phy[0].shaper.queue[4] rxBytes:histogram(packetBytes)
field count 2001
field mean 1522
field stddev 0
field min 1522
field max 1522
field sum 3045522
field sqrsum 4635284484
attr interpolationmode none
attr source rxPk
attr title "Received Bytes, histogram(packetBytes)"
attr unit B
bin	-inf	0
bin	1521	0
bin	1522	2001
bin	1523	0
statistic small_network.node1.phy[0].shaper.queue[4] rxLatency:stats
field count 2001
field mean 0
field stddev 0
field min 0
field max 0
field sum 0
field sqrsum 0
attr interpolationmode none
attr source messageAge(rxPk)
attr title "End-to-end latency (received), stats"
attr unit s
statistic small_network.node1.phy[0].shaper.queue[4] rxLatency:histogram
field count 2001
field mean 0
field stddev 0
field min 0
field max 0
field sum 0
field sqrsum 0
attr interpolationmode none
attr source messageAge(rxPk)
attr title "End-to-end latency (received), histogram"
attr unit s
bin	-inf	0
bin	-0.5	0
bin	-0.48	0
bin	-0.46	0
bin	-0.44	0
bin	-0.42	0
bin	-0.4	0
bin	-0.38	0
bin	-0.36	0
bin	-0.34	0
bin	-0.32	0
bin	-0.3	0
bin	-0.28	0
bin	-0.26	0
bin	-0.24	0
bin	-0.22	0
bin	-0.2	0
bin	-0.18	0
bin	-0.16	0
bin	-0.14	0
bin	-0.12	0
bin	-0.1	0
bin	-0.08	0
bin	-0.06	0
bin	-0.04	0
bin	-0.02	0
bin	0	2001
bin	0.02	0
bin	0.04	0
bin	0.06	0
bin	0.08	0
bin	0.1	0
bin	0.12	0
bin	0.14	0
bin	0.16	0
bin	0.18	0
bin	0.2	0
bin	0.22	0
bin	0.24	0
bin	0.26	0
bin	0.28	0
bin	0.3	0
bin	0.32	0
bin	0.34	0
bin	0.36	0
bin	0.38	0
bin	0.4	0
bin	0.42	0
bin	0.44	0
bin	0.46	0
bin	0.48	0
bin	0.5	0
scalar small_network.node1.phy[0].shaper.queue[4] txPk:count 0
attr source txPk
attr title "Transmitted Packets, count"
attr unit packets
scalar small_network.node1.phy[0].shaper.queue[4] txBytes:sum(packetBytes) 0
attr interpolationmode none
attr source txPk
attr title "Transmitted Bytes, sum(packetBytes)"
attr unit B
statistic small_network.node1.phy[0].shaper.queue[4] txBytes:histogram(packetBytes)
field count 0
field mean -nan
field stddev -nan
field min -nan
field max -nan
field sum 0
field sqrsum 0
attr interpolationmode none
attr source txPk
attr title "Transmitted Bytes, histogram(packetBytes)"
attr unit B
bin	-inf	0
bin	0	0
bin	1	0
statistic small_network.node1.phy[0].shaper.queue[4] txLatency:stats
field count 0
field mean -nan
field stddev -nan
field min -nan
field max -nan
field sum 0
field sqrsum 0
attr interpolationmode none
attr source messageAge(txPk)
attr title "End-to-end latency (transmitted), stats"
attr unit s
statistic small_network.node1.phy[0].shaper.queue[4] txLatency:histogram
field count 0
field mean -nan
field stddev -nan
field min -nan
field max -nan
field sum 0
field sqrsum 0
attr interpolationmode none
attr source messageAge(txPk)
attr title "End-to-end latency (transmitted), histogram"
attr unit s
bin	-inf	0
bin	0	0
bin	1	0
scalar small_network.node1.phy[0].shaper.queue[5] dropped:sum 0
attr source dropped
attr title "Dropped frames, sum"
attr unit packets
scalar small_network.node1.phy[0].shaper.queue[5] rxPk:count 2001
attr source rxPk
attr title "Received Packets, count"
attr unit packets
scalar small_network.node1.phy[0].shaper.queue[5] rxBytes:sum(packetBytes) 3045522
attr interpolationmode none
attr source rxPk
attr title "Received Bytes, sum(packetBytes)"
attr unit B
statistic small_network.node1.phy[0].shaper.queue[5] rxBytes:histogram(packetBytes)
field count 2001
field mean 1522
field stddev 0
field min 1522
field max 1522
field sum 3045522
field sqrsum 4635284484
attr interpolationmode none
attr source rxPk
attr title "Received Bytes, histogram(packetBytes)"
attr unit B
bin	-inf	0
bin	1521	0
bin	1522	2001
bin	1523	0
statistic small_network.node1.phy[0].shaper.queue[5] rxLatency:stats
field count 2001
field mean 0
field stddev 0
field min 0
field max 0
field sum 0
field sqrsum 0
attr interpolationmode none
attr source messageAge(rxPk)
attr title "End-to-end latency (received), stats"
attr unit s
statistic small_network.node1.phy[0].shaper.queue[5] rxLatency:histogram
field count 2001
field mean 0
field stddev 0
field min 0
field max 0
field sum 0
field sqrsum 0
attr interpolationmode none
attr source messageAge(rxPk)
attr title "End-to-end latency (received), histogram"
attr unit s
bin	-inf	0
bin	-0.5	0
bin	-0.48	0
bin	-0.46	0
bin	-0.44	0
bin	-0.42	0
bin	-0.4	0
bin	-0.38	0
bin	-0.36	0
bin	-0.34	0
bin	-0.32	0
bin	-0.3	0
bin	-0.28	0
bin	-0.26	0
bin	-0.24	0
bin	-0.22	0
bin	-0.2	0
bin	-0.18	0
bin	-0.16	0
bin	-0.14	0
bin	-0.12	0
bin	-0.1	0
bin	-0.08	0
bin	-0.06	0
bin	-0.04	0
bin	-0.02	0
bin	0	2001
bin	0.02	0
bin	0.04	0
bin	0.06	0
bin	0.08	0
bin	0.1	0
bin	0.12	0
bin	0.14	0
bin	0.16	0
bin	0.18	0
bin	0.2	0
bin	0.22	0
bin	0.24	0
bin	0.26	0
bin	0.28	0
bin	0.3	0
bin	0.32	0
bin	0.34	0
bin	0.36	0
bin	0.38	0
bin	0.4	0
bin	0.42	0
bin	0.44	0
bin	0.46	0
bin	0.48	0
bin	0.5	0
scalar small_network.node1.phy[0].shaper.queue[5] txPk:count 0
attr source txPk
attr title "Transmitted Packets, count"
attr unit packets
scalar small_network.node1.phy[0].shaper.queue[5] txBytes:sum(packetBytes) 0
attr interpolationmode none
attr source txPk
attr title "Transmitted Bytes, sum(packetBytes)"
attr unit B
statistic small_network.node1.phy[0].shaper.queue[5] txBytes:histogram(packetBytes)
field count 0
field mean -nan
field stddev -nan
field min -nan
field max -nan
field sum 0
field sqrsum 0
attr interpolationmode none
attr source txPk
attr title "Transmitted Bytes, histogram(packetBytes)"
attr unit B
bin	-inf	0
bin	0	0
bin	1	0
statistic small_network.node1.phy[0].shaper.queue[5] txLatency:stats
field count 0
field mean -nan
field stddev -nan
field min -nan
field max -nan
field sum 0
field sqrsum 0
attr interpolationmode none
attr source messageAge(txPk)
attr title "End-to-end latency (transmitted), stats"
attr unit s
statistic small_network.node1.phy[0].shaper.queue[5] txLatency:histogram
field count 0
field mean -nan
field stddev -nan
field min -nan
field max -nan
field sum 0
field sqrsum 0
attr interpolationmode none
attr source messageAge(txPk)
attr title "End-to-end latency (transmitted), histogram"
attr unit s
bin	-inf	0
bin	0	0
bin	1	0
scalar small_network.node1.phy[0].shaper.queue[6] dropped:sum 0
attr source dropped
attr title "Dropped frames, sum"
attr unit packets
scalar small_network.node1.phy[0].shaper.queue[6] rxPk:count 0
attr source rxPk
attr title "Received Packets, count"
attr unit packets
scalar small_network.node1.phy[0].shaper.queue[6] rxBytes:sum(packetBytes) 0
attr interpolationmode none
attr source rxPk
attr title "Received Bytes, sum(packetBytes)"
attr unit B
statistic small_network.node1.phy[0].shaper.queue[6] rxBytes:histogram(packetBytes)
field count 0
field mean -nan
field stddev -nan
field min -nan
field max -nan
field sum 0
field sqrsum 0
attr interpolationmode none
attr source rxPk
attr title "Received Bytes, histogram(packetBytes)"
attr unit B
bin	-inf	0
bin	0	0
bin	1	0
statistic small_network.node1.phy[0].shaper.queue[6] rxLatency:stats
field count 0
field mean -nan
field stddev -nan
field min -nan
field max -nan
field sum 0
field sqrsum 0
attr interpolationmode none
attr source messageAge(rxPk)
attr title "End-to-end latency (received), stats"
attr unit s
statistic small_network.node1.phy[0].shaper.queue[6] rxLatency:histogram
field count 0
field mean -nan
field stddev -nan
field min -nan
field max -nan
field sum 0
field sqrsum 0
attr interpolationmode none
attr source messageAge(rxPk)
attr title "End-to-end latency (received), histogram"
attr unit s
bin	-inf	0
bin	0	0
bin	1	0
scalar small_network.node1.phy[0].shaper.queue[6] txPk:count 0
attr source txPk
attr title "Transmitted Packets, count"
attr unit packets
scalar small_network.node1.phy[0].shaper.queue[6] txBytes:sum(packetBytes) 0
attr interpolationmode none
attr source txPk
attr title "Transmitted Bytes, sum(packetBytes)"
attr unit B
statistic small_network.node1.phy[0].shaper.queue[6] txBytes:histogram(packetBytes)
field count 0
field mean -nan
field stddev -nan
field min -nan
field max -nan
field sum 0
field sqrsum 0
attr interpolationmode none
attr source txPk
attr title "Transmitted Bytes, histogram(packetBytes)"
attr unit B
bin	-inf	0
bin	0	0
bin	1	0
statistic small_network.node1.phy[0].shaper.queue[6] txLatency:stats
field count 0
field mean -nan
field stddev -nan
field min -nan
field max -nan
field sum 0
field sqrsum 0
attr interpolationmode none
attr source messageAge(txPk)
attr title "End-to-end latency (transmitted), stats"
attr unit s
statistic small_network.node1.phy[0].shaper.queue[6] txLatency:histogram
field count 0
field mean -nan
field stddev -nan
field min -nan
field max -nan
field sum 0
field sqrsum 0
attr interpolationmode none
attr source messageAge(txPk)
attr title "End-to-end latency (transmitted), histogram"
attr unit s
bin	-inf	0
bin	0	0
bin	1	0
scalar small_network.node1.phy[0].shaper.queue[7] dropped:sum 0
attr source dropped
attr title "Dropped frames, sum"
attr unit packets
scalar small_network.node1.phy[0].shaper.queue[7] rxPk:count 2001
attr source rxPk
attr title "Received Packets, count"
attr unit packets
scalar small_network.node1.phy[0].shaper.queue[7] rxBytes:sum(packetBytes) 3045522
attr interpolationmode none
attr source rxPk
attr title "Received Bytes, sum(packetBytes)"
attr unit B
statistic small_network.node1.phy[0].shaper.queue[7] rxBytes:histogram(packetBytes)
field count 2001
field mean 1522
field stddev 0
field min 1522
field max 1522
field sum 3045522
field sqrsum 4635284484
attr interpolationmode none
attr source rxPk
attr title "Received Bytes, histogram(packetBytes)"
attr unit B
bin	-inf	0
bin	1521	0
bin	1522	2001
bin	1523	0
statistic small_network.node1.phy[0].shaper.queue[7] rxLatency:stats
field count 2001
field mean 0
field stddev 0
field min 0
field max 0
field sum 0
field sqrsum 0
attr interpolationmode none
attr source messageAge(rxPk)
attr title "End-to-end latency (received), stats"
attr unit s
statistic small_network.node1.phy[0].shaper.queue[7] rxLatency:histogram
field count 2001
field mean 0
field stddev 0
field min 0
field max 0
field sum 0
field sqrsum 0
attr interpolationmode none
attr source messageAge(rxPk)
attr title "End-to-end latency (received), histogram"
attr unit s
bin	-inf	0
bin	-0.5	0
bin	-0.48	0
bin	-0.46	0
bin	-0.44	0
bin	-0.42	0
bin	-0.4	0
bin	-0.38	0
bin	-0.36	0
bin	-0.34	0
bin	-0.32	0
bin	-0.3	0
bin	-0.28	0
bin	-0.26	0
bin	-0.24	0
bin	-0.22	0
bin	-0.2	0
bin	-0.18	0
bin	-0.16	0
bin	-0.14	0
bin	-0.12	0
bin	-0.1	0
bin	-0.08	0
bin	-0.06	0
bin	-0.04	0
bin	-0.02	0
bin	0	2001
bin	0.02	0
bin	0.04	0
bin	0.06	0
bin	0.08	0
bin	0.1	0
bin	0.12	0
bin	0.14	0
bin	0.16	0
bin	0.18	0
bin	0.2	0
bin	0.22	0
bin	0.24	0
bin	0.26	0
bin	0.28	0
bin	0.3	0
bin	0.32	0
bin	0.34	0
bin	0.36	0
bin	0.38	0
bin	0.4	0
bin	0.42	0
bin	0.44	0
bin	0.46	0
bin	0.48	0
bin	0.5	0
scalar small_network.node1.phy[0].shaper.queue[7] txPk:count 0
attr source txPk
attr title "Transmitted Packets, count"
attr unit packets
scalar small_network.node1.phy[0].shaper.queue[7] txBytes:sum(packetBytes) 0
attr interpolationmode none
attr source txPk
attr title "Transmitted Bytes, sum(packetBytes)"
attr unit B
statistic small_network.node1.phy[0].shaper.queue[7] txBytes:histogram(packetBytes)
field count 0
field mean -nan
field stddev -nan
field min -nan
field max -nan
field sum 0
field sqrsum 0
attr interpolationmode none
attr source txPk
attr title "Transmitted Bytes, histogram(packetBytes)"
attr unit B
bin	-inf	0
bin	0	0
bin	1	0
statistic small_network.node1.phy[0].shaper.queue[7] txLatency:stats
field count 0
field mean -nan
field stddev -nan
field min -nan
field max -nan
field sum 0
field sqrsum 0
attr interpolationmode none
attr source messageAge(txPk)
attr title "End-to-end latency (transmitted), stats"
attr unit s
statistic small_network.node1.phy[0].shaper.queue[7] txLatency:histogram
field count 0
field mean -nan
field stddev -nan
field min -nan
field max -nan
field sum 0
field sqrsum 0
attr interpolationmode none
attr source messageAge(txPk)
attr title "End-to-end latency (transmitted), histogram"
attr unit s
bin	-inf	0
bin	0	0
bin	1	0
scalar small_network.node1.phy[0].shaper.transmissionSelection "qPcp0 frames/sec" 1
scalar small_network.node1.phy[0].shaper.transmissionSelection "qPcp0 bits/sec" 12144
scalar small_network.node1.phy[0].shaper.transmissionSelection "qPcp1 frames/sec" 0
scalar small_network.node1.phy[0].shaper.transmissionSelection "qPcp1 bits/sec" 0
scalar small_network.node1.phy[0].shaper.transmissionSelection "qPcp2 frames/sec" 0
scalar small_network.node1.phy[0].shaper.transmissionSelection "qPcp2 bits/sec" 0
scalar small_network.node1.phy[0].shaper.transmissionSelection "qPcp3 frames/sec" 0
scalar small_network.node1.phy[0].shaper.transmissionSelection "qPcp3 bits/sec" 0
scalar small_network.node1.phy[0].shaper.transmissionSelection "qPcp4 frames/sec" 0
scalar small_network.node1.phy[0].shaper.transmissionSelection "qPcp4 bits/sec" 0
scalar small_network.node1.phy[0].shaper.transmissionSelection "qPcp5 frames/sec" 0
scalar small_network.node1.phy[0].shaper.transmissionSelection "qPcp5 bits/sec" 0
scalar small_network.node1.phy[0].shaper.transmissionSelection "qPcp6 frames/sec" 0
scalar small_network.node1.phy[0].shaper.transmissionSelection "qPcp6 bits/sec" 0
scalar small_network.node1.phy[0].shaper.transmissionSelection "qPcp7 frames/sec" 810
scalar small_network.node1.phy[0].shaper.transmissionSelection "qPcp7 bits/sec" 9862560
statistic small_network.node1.phy[0].shaper.transmissionSelection qPcp7Latency:stats
field count 811
field mean 0.29760418742293
field stddev 0.17185407051925
field min 0
field max 0.5947128
field sum 241.356996
field sqrsum 95.751248132189
attr interpolationmode none
attr title "End-to-end latency, stats"
attr unit s
statistic small_network.node1.phy[0].shaper.transmissionSelection qPcp7Latency:histogram
field count 811
field mean 0.29760418742293
field stddev 0.17185407051925
field min 0
field max 0.5947128
field sum 241.356996
field sqrsum 95.751248132189
attr interpolationmode none
attr title "End-to-end latency, histogram"
attr unit s
bin	-inf	0
bin	0	13
bin	0.01	14
bin	0.02	14
bin	0.03	13
bin	0.04	14
bin	0.05	14
bin	0.06	13
bin	0.07	14
bin	0.08	14
bin	0.09	13
bin	0.1	14
bin	0.11	13
bin	0.12	14
bin	0.13	14
bin	0.14	13
bin	0.15	14
bin	0.16	14
bin	0.17	13
bin	0.18	14
bin	0.19	13
bin	0.2	14
bin	0.21	14
bin	0.22	13
bin	0.23	14
bin	0.24	14
bin	0.25	13
bin	0.26	14
bin	0.27	14
bin	0.28	13
bin	0.29	14
bin	0.3	13
bin	0.31	14
bin	0.32	14
bin	0.33	13
bin	0.34	14
bin	0.35	14
bin	0.36	13
bin	0.37	14
bin	0.38	13
bin	0.39	14
bin	0.4	14
bin	0.41	13
bin	0.42	14
bin	0.43	14
bin	0.44	13
bin	0.45	14
bin	0.46	13
bin	0.47	14
bin	0.48	14
bin	0.49	13
bin	0.5	14
bin	0.51	14
bin	0.52	13
bin	0.53	14
bin	0.54	14
bin	0.55	13
bin	0.56	14
bin	0.57	13
bin	0.58	14
bin	0.59	7
bin	0.6	0
bin	0.61	0
bin	0.62	0
bin	0.63	0
bin	0.64	0
bin	0.65	0
bin	0.66	0
bin	0.67	0
bin	0.68	0
bin	0.69	0
bin	0.7	0
bin	0.71	0
bin	0.72	0
bin	0.73	0
bin	0.74	0
bin	0.75	0
scalar small_network.node1.phy[0].shaper.transmissionSelection qPcp7Pk:count 811
attr title "Received Packets, count"
attr unit packets
scalar small_network.node1.phy[0].shaper.transmissionSelection qPcp7Bytes:sum(packetBytes) 1232820
attr interpolationmode none
attr title "Received Bytes, sum(packetBytes)"
attr unit B
statistic small_network.node1.phy[0].shaper.transmissionSelection qPcp7Bytes:histogram(packetBytes)
field count 811
field mean 1520.1233045623
field stddev 53.444648527489
field min 0
field max 1522
field sum 1232820
field sqrsum 1876352040
attr interpolationmode none
attr title "Received Bytes, histogram(packetBytes)"
attr unit B
bin	-inf	0
bin	0	1
bin	20	0
bin	40	0
bin	60	0
bin	80	0
bin	100	0
bin	120	0
bin	140	0
bin	160	0
bin	180	0
bin	200	0
bin	220	0
bin	240	0
bin	260	0
bin	280	0
bin	300	0
bin	320	0
bin	340	0
bin	360	0
bin	380	0
bin	400	0
bin	420	0
bin	440	0
bin	460	0
bin	480	0
bin	500	0
bin	520	0
bin	540	0
bin	560	0
bin	580	0
bin	600	0
bin	620	0
bin	640	0
bin	660	0
bin	680	0
bin	700	0
bin	720	0
bin	740	0
bin	760	0
bin	780	0
bin	800	0
bin	820	0
bin	840	0
bin	860	0
bin	880	0
bin	900	0
bin	920	0
bin	940	0
bin	960	0
bin	980	0
bin	1000	0
bin	1020	0
bin	1040	0
bin	1060	0
bin	1080	0
bin	1100	0
bin	1120	0
bin	1140	0
bin	1160	0
bin	1180	0
bin	1200	0
bin	1220	0
bin	1240	0
bin	1260	0
bin	1280	0
bin	1300	0
bin	1320	0
bin	1340	0
bin	1360	0
bin	1380	0
bin	1400	0
bin	1420	0
bin	1440	0
bin	1460	0
bin	1480	0
bin	1500	0
bin	1520	810
bin	1540	0
bin	1560	0
bin	1580	0
bin	1600	0
bin	1620	0
bin	1640	0
bin	1660	0
bin	1680	0
bin	1700	0
bin	1720	0
bin	1740	0
bin	1760	0
bin	1780	0
bin	1800	0
bin	1820	0
bin	1840	0
bin	1860	0
bin	1880	0
bin	1900	0
bin	1920	0
statistic small_network.node1.phy[0].shaper.transmissionSelection qPcp6Latency:stats
field count 1
field mean 0
field stddev -nan
field min 0
field max 0
field sum 0
field sqrsum 0
attr interpolationmode none
attr title "End-to-end latency, stats"
attr unit s
statistic small_network.node1.phy[0].shaper.transmissionSelection qPcp6Latency:histogram
field count 1
field mean 0
field stddev -nan
field min 0
field max 0
field sum 0
field sqrsum 0
attr interpolationmode none
attr title "End-to-end latency, histogram"
attr unit s
bin	-inf	0
bin	-0.5	0
bin	-0.48	0
bin	-0.46	0
bin	-0.44	0
bin	-0.42	0
bin	-0.4	0
bin	-0.38	0
bin	-0.36	0
bin	-0.34	0
bin	-0.32	0
bin	-0.3	0
bin	-0.28	0
bin	-0.26	0
bin	-0.24	0
bin	-0.22	0
bin	-0.2	0
bin	-0.18	0
bin	-0.16	0
bin	-0.14	0
bin	-0.12	0
bin	-0.1	0
bin	-0.08	0
bin	-0.06	0
bin	-0.04	0
bin	-0.02	0
bin	0	1
bin	0.02	0
bin	0.04	0
bin	0.06	0
bin	0.08	0
bin	0.1	0
bin	0.12	0
bin	0.14	0
bin	0.16	0
bin	0.18	0
bin	0.2	0
bin	0.22	0
bin	0.24	0
bin	0.26	0
bin	0.28	0
bin	0.3	0
bin	0.32	0
bin	0.34	0
bin	0.36	0
bin	0.38	0
bin	0.4	0
bin	0.42	0
bin	0.44	0
bin	0.46	0
bin	0.48	0
bin	0.5	0
scalar small_network.node1.phy[0].shaper.transmissionSelection qPcp6Pk:count 1
attr title "Received Packets, count"
attr unit packets
scalar small_network.node1.phy[0].shaper.transmissionSelection qPcp6Bytes:sum(packetBytes) 0
attr interpolationmode none
attr title "Received Bytes, sum(packetBytes)"
attr unit B
statistic small_network.node1.phy[0].shaper.transmissionSelection qPcp6Bytes:histogram(packetBytes)
field count 1
field mean 0
field stddev -nan
field min 0
field max 0
field sum 0
field sqrsum 0
attr interpolationmode none
attr title "Received Bytes, histogram(packetBytes)"
attr unit B
bin	-inf	0
bin	-0.5	0
bin	-0.48	0
bin	-0.46	0
bin	-0.44	0
bin	-0.42	0
bin	-0.4	0
bin	-0.38	0
bin	-0.36	0
bin	-0.34	0
bin	-0.32	0
bin	-0.3	0
bin	-0.28	0
bin	-0.26	0
bin	-0.24	0
bin	-0.22	0
bin	-0.2	0
bin	-0.18	0
bin	-0.16	0
bin	-0.14	0
bin	-0.12	0
bin	-0.1	0
bin	-0.08	0
bin	-0.06	0
bin	-0.04	0
bin	-0.02	0
bin	0	1
bin	0.02	0
bin	0.04	0
bin	0.06	0
bin	0.08	0
bin	0.1	0
bin	0.12	0
bin	0.14	0
bin	0.16	0
bin	0.18	0
bin	0.2	0
bin	0.22	0
bin	0.24	0
bin	0.26	0
bin	0.28	0
bin	0.3	0
bin	0.32	0
bin	0.34	0
bin	0.36	0
bin	0.38	0
bin	0.4	0
bin	0.42	0
bin	0.44	0
bin	0.46	0
bin	0.48	0
bin	0.5	0
statistic small_network.node1.phy[0].shaper.transmissionSelection qPcp5Latency:stats
field count 1
field mean 0
field stddev -nan
field min 0
field max 0
field sum 0
field sqrsum 0
attr interpolationmode none
attr title "End-to-end latency, stats"
attr unit s
statistic small_network.node1.phy[0].shaper.transmissionSelection qPcp5Latency:histogram
field count 1
field mean 0
field stddev -nan
field min 0
field max 0
field sum 0
field sqrsum 0
attr interpolationmode none
attr title "End-to-end latency, histogram"
attr unit s
bin	-inf	0
bin	-0.5	0
bin	-0.48	0
bin	-0.46	0
bin	-0.44	0
bin	-0.42	0
bin	-0.4	0
bin	-0.38	0
bin	-0.36	0
bin	-0.34	0
bin	-0.32	0
bin	-0.3	0
bin	-0.28	0
bin	-0.26	0
bin	-0.24	0
bin	-0.22	0
bin	-0.2	0
bin	-0.18	0
bin	-0.16	0
bin	-0.14	0
bin	-0.12	0
bin	-0.1	0
bin	-0.08	0
bin	-0.06	0
bin	-0.04	0
bin	-0.02	0
bin	0	1
bin	0.02	0
bin	0.04	0
bin	0.06	0
bin	0.08	0
bin	0.1	0
bin	0.12	0
bin	0.14	0
bin	0.16	0
bin	0.18	0
bin	0.2	0
bin	0.22	0
bin	0.24	0
bin	0.26	0
bin	0.28	0
bin	0.3	0
bin	0.32	0
bin	0.34	0
bin	0.36	0
bin	0.38	0
bin	0.4	0
bin	0.42	0
bin	0.44	0
bin	0.46	0
bin	0.48	0
bin	0.5	0
scalar small_network.node1.phy[0].shaper.transmissionSelection qPcp5Pk:count 1
attr title "Received Packets, count"
attr unit packets
scalar small_network.node1.phy[0].shaper.transmissionSelection qPcp5Bytes:sum(packetBytes) 0
attr interpolationmode none
attr title "Received Bytes, sum(packetBytes)"
attr unit B
statistic small_network.node1.phy[0].shaper.transmissionSelection qPcp5Bytes:histogram(packetBytes)
field count 1
field mean 0
field stddev -nan
field min 0
field max 0
field sum 0
field sqrsum 0
attr interpolationmode none
attr title "Received Bytes, histogram(packetBytes)"
attr unit B
bin	-inf	0
bin	-0.5	0
bin	-0.48	0
bin	-0.46	0
bin	-0.44	0
bin	-0.42	0
bin	-0.4	0
bin	-0.38	0
bin	-0.36	0
bin	-0.34	0
bin	-0.32	0
bin	-0.3	0
bin	-0.28	0
bin	-0.26	0
bin	-0.24	0
bin	-0.22	0
bin	-0.2	0
bin	-0.18	0
bin	-0.16	0
bin	-0.14	0
bin	-0.12	0
bin	-0.1	0
bin	-0.08	0
bin	-0.06	0
bin	-0.04	0
bin	-0.02	0
bin	0	1
bin	0.02	0
bin	0.04	0
bin	0.06	0
bin	0.08	0
bin	0.1	0
bin	0.12	0
bin	0.14	0
bin	0.16	0
bin	0.18	0
bin	0.2	0
bin	0.22	0
bin	0.24	0
bin	0.26	0
bin	0.28	0
bin	0.3	0
bin	0.32	0
bin	0.34	0
bin	0.36	0
bin	0.38	0
bin	0.4	0
bin	0.42	0
bin	0.44	0
bin	0.46	0
bin	0.48	0
bin	0.5	0
statistic small_network.node1.phy[0].shaper.transmissionSelection qPcp4Latency:stats
field count 1
field mean 0
field stddev -nan
field min 0
field max 0
field sum 0
field sqrsum 0
attr interpolationmode none
attr title "End-to-end latency, stats"
attr unit s
statistic small_network.node1.phy[0].shaper.transmissionSelection qPcp4Latency:histogram
field count 1
field mean 0
field stddev -nan
field min 0
field max 0
field sum 0
field sqrsum 0
attr interpolationmode none
attr title "End-to-end latency, histogram"
attr unit s
bin	-inf	0
bin	-0.5	0
bin	-0.48	0
bin	-0.46	0
bin	-0.44	0
bin	-0.42	0
bin	-0.4	0
bin	-0.38	0
bin	-0.36	0
bin	-0.34	0
bin	-0.32	0
bin	-0.3	0
bin	-0.28	0
bin	-0.26	0
bin	-0.24	0
bin	-0.22	0
bin	-0.2	0
bin	-0.18	0
bin	-0.16	0
bin	-0.14	0
bin	-0.12	0
bin	-0.1	0
bin	-0.08	0
bin	-0.06	0
bin	-0.04	0
bin	-0.02	0
bin	0	1
bin	0.02	0
bin	0.04	0
bin	0.06	0
bin	0.08	0
bin	0.1	0
bin	0.12	0
bin	0.14	0
bin	0.16	0
bin	0.18	0
bin	0.2	0
bin	0.22	0
bin	0.24	0
bin	0.26	0
bin	0.28	0
bin	0.3	0
bin	0.32	0
bin	0.34	0
bin	0.36	0
bin	0.38	0
bin	0.4	0
bin	0.42	0
bin	0.44	0
bin	0.46	0
bin	0.48	0
bin	0.5	0
scalar small_network.node1.phy[0].shaper.transmissionSelection qPcp4Pk:count 1
attr title "Received Packets, count"
attr unit packets
scalar small_network.node1.phy[0].shaper.transmissionSelection qPcp4Bytes:sum(packetBytes) 0
attr interpolationmode none
attr title "Received Bytes, sum(packetBytes)"
attr unit B
statistic small_network.node1.phy[0].shaper.transmissionSelection qPcp4Bytes:histogram(packetBytes)
field count 1
field mean 0
field stddev -nan
field min 0
field max 0
field sum 0
field sqrsum 0
attr interpolationmode none
attr title "Received Bytes, histogram(packetBytes)"
attr unit B
bin	-inf	0
bin	-0.5	0
bin	-0.48	0
bin	-0.46	0
bin	-0.44	0
bin	-0.42	0
bin	-0.4	0
bin	-0.38	0
bin	-0.36	0
bin	-0.34	0
bin	-0.32	0
bin	-0.3	0
bin	-0.28	0
bin	-0.26	0
bin	-0.24	0
bin	-0.22	0
bin	-0.2	0
bin	-0.18	0
bin	-0.16	0
bin	-0.14	0
bin	-0.12	0
bin	-0.1	0
bin	-0.08	0
bin	-0.06	0
bin	-0.04	0
bin	-0.02	0
bin	0	1
bin	0.02	0
bin	0.04	0
bin	0.06	0
bin	0.08	0
bin	0.1	0
bin	0.12	0
bin	0.14	0
bin	0.16	0
bin	0.18	0
bin	0.2	0
bin	0.22	0
bin	0.24	0
bin	0.26	0
bin	0.28	0
bin	0.3	0
bin	0.32	0
bin	0.34	0
bin	0.36	0
bin	0.38	0
bin	0.4	0
bin	0.42	0
bin	0.44	0
bin	0.46	0
bin	0.48	0
bin	0.5	0
statistic small_network.node1.phy[0].shaper.transmissionSelection qPcp3Latency:stats
field count 1
field mean 0
field stddev -nan
field min 0
field max 0
field sum 0
field sqrsum 0
attr interpolationmode none
attr title "End-to-end latency, stats"
attr unit s
statistic small_network.node1.phy[0].shaper.transmissionSelection qPcp3Latency:histogram
field count 1
field mean 0
field stddev -nan
field min 0
field max 0
field sum 0
field sqrsum 0
attr interpolationmode none
attr title "End-to-end latency, histogram"
attr unit s
bin	-inf	0
bin	-0.5	0
bin	-0.48	0
bin	-0.46	0
bin	-0.44	0
bin	-0.42	0
bin	-0.4	0
bin	-0.38	0
bin	-0.36	0
bin	-0.34	0
bin	-0.32	0
bin	-0.3	0
bin	-0.28	0
bin	-0.26	0
bin	-0.24	0
bin	-0.22	0
bin	-0.2	0
bin	-0.18	0
bin	-0.16	0
bin	-0.14	0
bin	-0.12	0
bin	-0.1	0
bin	-0.08	0
bin	-0.06	0
bin	-0.04	0
bin	-0.02	0
bin	0	1
bin	0.02	0
bin	0.04	0
bin	0.06	0
bin	0.08	0
bin	0.1	0
bin	0.12	0
bin	0.14	0
bin	0.16	0
bin	0.18	0
bin	0.2	0
bin	0.22	0
bin	0.24	0
bin	0.26	0
bin	0.28	0
bin	0.3	0
bin	0.32	0
bin	0.34	0
bin	0.36	0
bin	0.38	0
bin	0.4	0
bin	0.42	0
bin	0.44	0
bin	0.46	0
bin	0.48	0
bin	0.5	0
scalar small_network.node1.phy[0].shaper.transmissionSelection qPcp3Pk:count 1
attr title "Received Packets, count"
attr unit packets
scalar small_network.node1.phy[0].shaper.transmissionSelection qPcp3Bytes:sum(packetBytes) 0
attr interpolationmode none
attr title "Received Bytes, sum(packetBytes)"
attr unit B
statistic small_network.node1.phy[0].shaper.transmissionSelection qPcp3Bytes:histogram(packetBytes)
field count 1
field mean 0
field stddev -nan
field min 0
field max 0
field sum 0
field sqrsum 0
attr interpolationmode none
attr title "Received Bytes, histogram(packetBytes)"
attr unit B
bin	-inf	0
bin	-0.5	0
bin	-0.48	0
bin	-0.46	0
bin	-0.44	0
bin	-0.42	0
bin	-0.4	0
bin	-0.38	0
bin	-0.36	0
bin	-0.34	0
bin	-0.32	0
bin	-0.3	0
bin	-0.28	0
bin	-0.26	0
bin	-0.24	0
bin	-0.22	0
bin	-0.2	0
bin	-0.18	0
bin	-0.16	0
bin	-0.14	0
bin	-0.12	0
bin	-0.1	0
bin	-0.08	0
bin	-0.06	0
bin	-0.04	0
bin	-0.02	0
bin	0	1
bin	0.02	0
bin	0.04	0
bin	0.06	0
bin	0.08	0
bin	0.1	0
bin	0.12	0
bin	0.14	0
bin	0.16	0
bin	0.18	0
bin	0.2	0
bin	0.22	0
bin	0.24	0
bin	0.26	0
bin	0.28	0
bin	0.3	0
bin	0.32	0
bin	0.34	0
bin	0.36	0
bin	0.38	0
bin	0.4	0
bin	0.42	0
bin	0.44	0
bin	0.46	0
bin	0.48	0
bin	0.5	0
statistic small_network.node1.phy[0].shaper.transmissionSelection qPcp2Latency:stats
field count 1
field mean 0
field stddev -nan
field min 0
field max 0
field sum 0
field sqrsum 0
attr interpolationmode none
attr title "End-to-end latency, stats"
attr unit s
statistic small_network.node1.phy[0].shaper.transmissionSelection qPcp2Latency:histogram
field count 1
field mean 0
field stddev -nan
field min 0
field max 0
field sum 0
field sqrsum 0
attr interpolationmode none
attr title "End-to-end latency, histogram"
attr unit s
bin	-inf	0
bin	-0.5	0
bin	-0.48	0
bin	-0.46	0
bin	-0.44	0
bin	-0.42	0
bin	-0.4	0
bin	-0.38	0
bin	-0.36	0
bin	-0.34	0
bin	-0.32	0
bin	-0.3	0
bin	-0.28	0
bin	-0.26	0
bin	-0.24	0
bin	-0.22	0
bin	-0.2	0
bin	-0.18	0
bin	-0.16	0
bin	-0.14	0
bin	-0.12	0
bin	-0.1	0
bin	-0.08	0
bin	-0.06	0
bin	-0.04	0
bin	-0.02	0
bin	0	1
bin	0.02	0
bin	0.04	0
bin	0.06	0
bin	0.08	0
bin	0.1	0
bin	0.12	0
bin	0.14	0
bin	0.16	0
bin	0.18	0
bin	0.2	0
bin	0.22	0
bin	0.24	0
bin	0.26	0
bin	0.28	0
bin	0.3	0
bin	0.32	0
bin	0.34	0
bin	0.36	0
bin	0.38	0
bin	0.4	0
bin	0.42	0
bin	0.44	0
bin	0.46	0
bin	0.48	0
bin	0.5	0
scalar small_network.node1.phy[0].shaper.transmissionSelection qPcp2Pk:count 1
attr title "Received Packets, count"
attr unit packets
scalar small_network.node1.phy[0].shaper.transmissionSelection qPcp2Bytes:sum(packetBytes) 0
attr interpolationmode none
attr title "Received Bytes, sum(packetBytes)"
attr unit B
statistic small_network.node1.phy[0].shaper.transmissionSelection qPcp2Bytes:histogram(packetBytes)
field count 1
field mean 0
field stddev -nan
field min 0
field max 0
field sum 0
field sqrsum 0
attr interpolationmode none
attr title "Received Bytes, histogram(packetBytes)"
attr unit B
bin	-inf	0
bin	-0.5	0
bin	-0.48	0
bin	-0.46	0
bin	-0.44	0
bin	-0.42	0
bin	-0.4	0
bin	-0.38	0
bin	-0.36	0
bin	-0.34	0
bin	-0.32	0
bin	-0.3	0
bin	-0.28	0
bin	-0.26	0
bin	-0.24	0
bin	-0.22	0
bin	-0.2	0
bin	-0.18	0
bin	-0.16	0
bin	-0.14	0
bin	-0.12	0
bin	-0.1	0
bin	-0.08	0
bin	-0.06	0
bin	-0.04	0
bin	-0.02	0
bin	0	1
bin	0.02	0
bin	0.04	0
bin	0.06	0
bin	0.08	0
bin	0.1	0
bin	0.12	0
bin	0.14	0
bin	0.16	0
bin	0.18	0
bin	0.2	0
bin	0.22	0
bin	0.24	0
bin	0.26	0
bin	0.28	0
bin	0.3	0
bin	0.32	0
bin	0.34	0
bin	0.36	0
bin	0.38	0
bin	0.4	0
bin	0.42	0
bin	0.44	0
bin	0.46	0
bin	0.48	0
bin	0.5	0
statistic small_network.node1.phy[0].shaper.transmissionSelection qPcp1Latency:stats
field count 1
field mean 0
field stddev -nan
field min 0
field max 0
field sum 0
field sqrsum 0
attr interpolationmode none
attr title "End-to-end latency, stats"
attr unit s
statistic small_network.node1.phy[0].shaper.transmissionSelection qPcp1Latency:histogram
field count 1
field mean 0
field stddev -nan
field min 0
field max 0
field sum 0
field sqrsum 0
attr interpolationmode none
attr title "End-to-end latency, histogram"
attr unit s
bin	-inf	0
bin	-0.5	0
bin	-0.48	0
bin	-0.46	0
bin	-0.44	0
bin	-0.42	0
bin	-0.4	0
bin	-0.38	0
bin	-0.36	0
bin	-0.34	0
bin	-0.32	0
bin	-0.3	0
bin	-0.28	0
bin	-0.26	0
bin	-0.24	0
bin	-0.22	0
bin	-0.2	0
bin	-0.18	0
bin	-0.16	0
bin	-0.14	0
bin	-0.12	0
bin	-0.1	0
bin	-0.08	0
bin	-0.06	0
bin	-0.04	0
bin	-0.02	0
bin	0	1
bin	0.02	0
bin	0.04	0
bin	0.06	0
bin	0.08	0
bin	0.1	0
bin	0.12	0
bin	0.14	0
bin	0.16	0
bin	0.18	0
bin	0.2	0
bin	0.22	0
bin	0.24	0
bin	0.26	0
bin	0.28	0
bin	0.3	0
bin	0.32	0
bin	0.34	0
bin	0.36	0
bin	0.38	0
bin	0.4	0
bin	0.42	0
bin	0.44	0
bin	0.46	0
bin	0.48	0
bin	0.5	0
scalar small_network.node1.phy[0].shaper.transmissionSelection qPcp1Pk:count 1
attr title "Received Packets, count"
attr unit packets
scalar small_network.node1.phy[0].shaper.transmissionSelection qPcp1Bytes:sum(packetBytes) 0
attr interpolationmode none
attr title "Received Bytes, sum(packetBytes)"
attr unit B
statistic small_network.node1.phy[0].shaper.transmissionSelection qPcp1Bytes:histogram(packetBytes)
field count 1
field mean 0
field stddev -nan
field min 0
field max 0
field sum 0
field sqrsum 0
attr interpolationmode none
attr title "Received Bytes, histogram(packetBytes)"
attr unit B
bin	-inf	0
bin	-0.5	0
bin	-0.48	0
bin	-0.46	0
bin	-0.44	0
bin	-0.42	0
bin	-0.4	0
bin	-0.38	0
bin	-0.36	0
bin	-0.34	0
bin	-0.32	0
bin	-0.3	0
bin	-0.28	0
bin	-0.26	0
bin	-0.24	0
bin	-0.22	0
bin	-0.2	0
bin	-0.18	0
bin	-0.16	0
bin	-0.14	0
bin	-0.12	0
bin	-0.1	0
bin	-0.08	0
bin	-0.06	0
bin	-0.04	0
bin	-0.02	0
bin	0	1
bin	0.02	0
bin	0.04	0
bin	0.06	0
bin	0.08	0
bin	0.1	0
bin	0.12	0
bin	0.14	0
bin	0.16	0
bin	0.18	0
bin	0.2	0
bin	0.22	0
bin	0.24	0
bin	0.26	0
bin	0.28	0
bin	0.3	0
bin	0.32	0
bin	0.34	0
bin	0.36	0
bin	0.38	0
bin	0.4	0
bin	0.42	0
bin	0.44	0
bin	0.46	0
bin	0.48	0
bin	0.5	0
statistic small_network.node1.phy[0].shaper.transmissionSelection qPcp0Latency:stats
field count 2
field mean 0
field stddev 0
field min 0
field max 0
field sum 0
field sqrsum 0
attr interpolationmode none
attr title "End-to-end latency, stats"
attr unit s
statistic small_network.node1.phy[0].shaper.transmissionSelection qPcp0Latency:histogram
field count 2
field mean 0
field stddev 0
field min 0
field max 0
field sum 0
field sqrsum 0
attr interpolationmode none
attr title "End-to-end latency, histogram"
attr unit s
bin	-inf	0
bin	-0.5	0
bin	-0.48	0
bin	-0.46	0
bin	-0.44	0
bin	-0.42	0
bin	-0.4	0
bin	-0.38	0
bin	-0.36	0
bin	-0.34	0
bin	-0.32	0
bin	-0.3	0
bin	-0.28	0
bin	-0.26	0
bin	-0.24	0
bin	-0.22	0
bin	-0.2	0
bin	-0.18	0
bin	-0.16	0
bin	-0.14	0
bin	-0.12	0
bin	-0.1	0
bin	-0.08	0
bin	-0.06	0
bin	-0.04	0
bin	-0.02	0
bin	0	2
bin	0.02	0
bin	0.04	0
bin	0.06	0
bin	0.08	0
bin	0.1	0
bin	0.12	0
bin	0.14	0
bin	0.16	0
bin	0.18	0
bin	0.2	0
bin	0.22	0
bin	0.24	0
bin	0.26	0
bin	0.28	0
bin	0.3	0
bin	0.32	0
bin	0.34	0
bin	0.36	0
bin	0.38	0
bin	0.4	0
bin	0.42	0
bin	0.44	0
bin	0.46	0
bin	0.48	0
bin	0.5	0
scalar small_network.node1.phy[0].shaper.transmissionSelection qPcp0Pk:count 2
attr title "Received Packets, count"
attr unit packets
scalar small_network.node1.phy[0].shaper.transmissionSelection qPcp0Bytes:sum(packetBytes) 1518
attr interpolationmode none
attr title "Received Bytes, sum(packetBytes)"
attr unit B
statistic small_network.node1.phy[0].shaper.transmissionSelection qPcp0Bytes:histogram(packetBytes)
field count 2
field mean 759
field stddev 1073.3880938412
field min 0
field max 1518
field sum 1518
field sqrsum 2304324
attr interpolationmode none
attr title "Received Bytes, histogram(packetBytes)"
attr unit B
bin	-inf	0
bin	0	1
bin	20	0
bin	40	0
bin	60	0
bin	80	0
bin	100	0
bin	120	0
bin	140	0
bin	160	0
bin	180	0
bin	200	0
bin	220	0
bin	240	0
bin	260	0
bin	280	0
bin	300	0
bin	320	0
bin	340	0
bin	360	0
bin	380	0
bin	400	0
bin	420	0
bin	440	0
bin	460	0
bin	480	0
bin	500	0
bin	520	0
bin	540	0
bin	560	0
bin	580	0
bin	600	0
bin	620	0
bin	640	0
bin	660	0
bin	680	0
bin	700	0
bin	720	0
bin	740	0
bin	760	0
bin	780	0
bin	800	0
bin	820	0
bin	840	0
bin	860	0
bin	880	0
bin	900	0
bin	920	0
bin	940	0
bin	960	0
bin	980	0
bin	1000	0
bin	1020	0
bin	1040	0
bin	1060	0
bin	1080	0
bin	1100	0
bin	1120	0
bin	1140	0
bin	1160	0
bin	1180	0
bin	1200	0
bin	1220	0
bin	1240	0
bin	1260	0
bin	1280	0
bin	1300	0
bin	1320	0
bin	1340	0
bin	1360	0
bin	1380	0
bin	1400	0
bin	1420	0
bin	1440	0
bin	1460	0
bin	1480	0
bin	1500	1
bin	1520	0
bin	1540	0
bin	1560	0
bin	1580	0
bin	1600	0
bin	1620	0
bin	1640	0
bin	1660	0
bin	1680	0
bin	1700	0
bin	1720	0
bin	1740	0
bin	1760	0
bin	1780	0
bin	1800	0
bin	1820	0
bin	1840	0
bin	1860	0
bin	1880	0
bin	1900	0
statistic small_network.node1.phy[0].inControl rxLatency:stats
field count 2
field mean 0.0033863975
field stddev 0.00087002418357193
field min 0.0027711975
field max 0.0040015975
field sum 0.006772795
field sqrsum 2.3692318136012e-05
attr interpolationmode none
attr source messageAge(rxPk)
attr title "End-to-end latency (received), stats"
attr unit s
statistic small_network.node1.phy[0].inControl rxLatency:histogram
field count 2
field mean 0.0033863975
field stddev 0.00087002418357193
field min 0.0027711975
field max 0.0040015975
field sum 0.006772795
field sqrsum 2.3692318136012e-05
attr interpolationmode none
attr source messageAge(rxPk)
attr title "End-to-end latency (received), histogram"
attr unit s
bin	-inf	0
bin	0.00246	0
bin	0.00248	0
bin	0.0025	0
bin	0.00252	0
bin	0.00254	0
bin	0.00256	0
bin	0.00258	0
bin	0.0026	0
bin	0.00262	0
bin	0.00264	0
bin	0.00266	0
bin	0.00268	0
bin	0.0027	0
bin	0.00272	0
bin	0.00274	0
bin	0.00276	1
bin	0.00278	0
bin	0.0028	0
bin	0.00282	0
bin	0.00284	0
bin	0.00286	0
bin	0.00288	0
bin	0.0029	0
bin	0.00292	0
bin	0.00294	0
bin	0.00296	0
bin	0.00298	0
bin	0.003	0
bin	0.00302	0
bin	0.00304	0
bin	0.00306	0
bin	0.00308	0
bin	0.0031	0
bin	0.00312	0
bin	0.00314	0
bin	0.00316	0
bin	0.00318	0
bin	0.0032	0
bin	0.00322	0
bin	0.00324	0
bin	0.00326	0
bin	0.00328	0
bin	0.0033	0
bin	0.00332	0
bin	0.00334	0
bin	0.00336	0
bin	0.00338	0
bin	0.0034	0
bin	0.00342	0
bin	0.00344	0
bin	0.00346	0
bin	0.00348	0
bin	0.0035	0
bin	0.00352	0
bin	0.00354	0
bin	0.00356	0
bin	0.00358	0
bin	0.0036	0
bin	0.00362	0
bin	0.00364	0
bin	0.00366	0
bin	0.00368	0
bin	0.0037	0
bin	0.00372	0
bin	0.00374	0
bin	0.00376	0
bin	0.00378	0
bin	0.0038	0
bin	0.00382	0
bin	0.00384	0
bin	0.00386	0
bin	0.00388	0
bin	0.0039	0
bin	0.00392	0
bin	0.00394	0
bin	0.00396	0
bin	0.00398	0
bin	0.004	1
bin	0.00402	0
bin	0.00404	0
bin	0.00406	0
bin	0.00408	0
bin	0.0041	0
bin	0.00412	0
bin	0.00414	0
bin	0.00416	0
bin	0.00418	0
bin	0.0042	0
bin	0.00422	0
bin	0.00424	0
bin	0.00426	0
bin	0.00428	0
bin	0.0043	0
bin	0.00432	0
scalar small_network.node1.phy[0].mac "simulated time" 1
scalar small_network.node1.phy[0].mac full-duplex 1
scalar small_network.node1.phy[0].mac "frames/sec sent" 810
scalar small_network.node1.phy[0].mac "frames/sec rcvd" 2
scalar small_network.node1.phy[0].mac "bits/sec sent" 9862528
scalar small_network.node1.phy[0].mac "bits/sec rcvd" 24288
scalar small_network.node1.phy[0].mac "rx channel idle (%)" 99.75584
scalar small_network.node1.phy[0].mac "rx channel utilization (%)" 0.24416
scalar small_network.node1.phy[0].mac droppedPkNotForUs:count 0
attr interpolationmode none
attr source dropPkNotForUs
attr title "packets dropped/not for us, count"
scalar small_network.node1.phy[0].mac droppedPkNotForUs:sum(packetBytes) 0
attr interpolationmode none
attr source dropPkNotForUs
attr title "packets dropped/not for us, sum(packetBytes)"
scalar small_network.node1.phy[0].mac droppedPkIfaceDown:count 0
attr interpolationmode none
attr source dropPkIfaceDown
attr title "packets dropped/interface down, count"
scalar small_network.node1.phy[0].mac droppedPkIfaceDown:sum(packetBytes) 0
attr interpolationmode none
attr source dropPkIfaceDown
attr title "packets dropped/interface down, sum(packetBytes)"
scalar small_network.node1.phy[0].mac droppedPkBitError:count 0
attr interpolationmode none
attr source dropPkBitError
attr title "packets dropped/bit error, count"
scalar small_network.node1.phy[0].mac droppedPkBitError:sum(packetBytes) 0
attr interpolationmode none
attr source dropPkBitError
attr title "packets dropped/bit error, sum(packetBytes)"
scalar small_network.node1.phy[0].mac rxPkFromHL:count 811
attr interpolationmode none
attr source rxPkFromHL
attr title "packet bytes from higher layer, count"
scalar small_network.node1.phy[0].mac rxPkFromHL:sum(packetBytes) 1234338
attr interpolationmode none
attr source rxPkFromHL
attr title "packet bytes from higher layer, sum(packetBytes)"
scalar small_network.node1.phy[0].mac rxPausePkUnits:count 0
attr interpolationmode none
attr title "pause units received, count"
scalar small_network.node1.phy[0].mac rxPausePkUnits:sum 0
attr interpolationmode none
attr title "pause units received, sum"
scalar small_network.node1.phy[0].mac txPausePkUnits:count 0
attr interpolationmode none
attr title "pause units sent, count"
scalar small_network.node1.phy[0].mac txPausePkUnits:sum 0
attr interpolationmode none
attr title "pause units sent, sum"
scalar small_network.node1.phy[0].mac rxPkOk:count 2
attr interpolationmode none
attr source rxPkOk
attr title "packets received OK, count"
scalar small_network.node1.phy[0].mac rxPkOk:sum(packetBytes) 3036
attr interpolationmode none
attr source rxPkOk
attr title "packets received OK, sum(packetBytes)"
scalar small_network.node1.phy[0].mac txPk:count 810
attr interpolationmode none
attr source txPk
attr title "packets transmitted, count"
scalar small_network.node1.phy[0].mac txPk:sum(packetBytes) 1232816
attr interpolationmode none
attr source txPk
attr title "packets transmitted, sum(packetBytes)"
scalar small_network.node1.phy[0].mac passedUpPk:count 2
attr interpolationmode none
attr source packetSentToUpper
attr title "packets passed to higher layer, count"
scalar small_network.node1.phy[0].mac passedUpPk:sum(packetBytes) 3036
attr interpolationmode none
attr source packetSentToUpper
attr title "packets passed to higher layer, sum(packetBytes)"
scalar small_network.node1.avbCTC dropped:count 0
attr source droppedPk
attr title "Packets Dropped, count"
scalar small_network.node1.avbCTC rxPk:count 0
attr source rxPk
attr title "Received Packets, count"
scalar small_network.node1.avbCTC rxBytes:sum(packetBytes) 0
attr interpolationmode none
attr source rxPk
attr title "Received Bytes, sum(packetBytes)"
attr unit B
statistic small_network.node1.avbCTC latency:stats
field count 0
field mean -nan
field stddev -nan
field min -nan
field max -nan
field sum 0
field sqrsum 0
attr interpolationmode none
attr source messageAge(rxPk)
attr title "End-to-end latency, stats"
attr unit s
statistic small_network.node1.avbCTC latency:histogram
field count 0
field mean -nan
field stddev -nan
field min -nan
field max -nan
field sum 0
field sqrsum 0
attr interpolationmode none
attr source messageAge(rxPk)
attr title "End-to-end latency, histogram"
attr unit s
bin	-inf	0
bin	0	0
bin	1	0
scalar small_network.node1.encap pauseSent:count 0
attr title "pause sent, count"
scalar small_network.node1.encap pauseSent:sum 0
attr title "pause sent, sum"
scalar small_network.node1.encap decapPk:count 0
attr interpolationmode none
attr source decapPk
attr title "packets decapsulated, count"
scalar small_network.node1.encap decapPk:sum(packetBytes) 0
attr interpolationmode none
attr source decapPk
attr title "packets decapsulated, sum(packetBytes)"
scalar small_network.node1.encap encapPk:count 0
attr interpolationmode none
attr source encapPk
attr title "packets encapsulated, count"
scalar small_network.node1.encap encapPk:sum(packetBytes) 0
attr interpolationmode none
attr source encapPk
attr title "packets encapsulated, sum(packetBytes)"
scalar small_network.node1.scheduler.period[0] numberOfCycles:count 199
attr interpolationmode none
attr source newCycle
attr title "Number of cycle, count"
statistic small_network.node1.app[0] payloadOverTime:stats
field count 2001
field mean 1500
field stddev 0
field min 1500
field max 1500
field sum 3001500
field sqrsum 4502250000
attr interpolationmode linear
attr source payloadSignal
attr title "payload over time, stats"
attr unit B
statistic small_network.node1.app[0] payloadOverTime:histogram
field count 2001
field mean 1500
field stddev 0
field min 1500
field max 1500
field sum 3001500
field sqrsum 4502250000
attr interpolationmode linear
attr source payloadSignal
attr title "payload over time, histogram"
attr unit B
bin	-inf	0
bin	1499	0
bin	1500	2001
bin	1501	0
statistic small_network.node1.app[0] sendIntervalOverTime:stats
field count 0
field mean -nan
field stddev -nan
field min -nan
field max -nan
field sum 0
field sqrsum 0
attr interpolationmode linear
attr source intervalSignal
attr title "send interval over time, stats"
attr unit s
statistic small_network.node1.app[0] sendIntervalOverTime:histogram
field count 0
field mean -nan
field stddev -nan
field min -nan
field max -nan
field sum 0
field sqrsum 0
attr interpolationmode linear
attr source intervalSignal
attr title "send interval over time, histogram"
attr unit s
bin	-inf	0
bin	0	0
bin	1	0
statistic small_network.node1.app[1] payloadOverTime:stats
field count 2001
field mean 1500
field stddev 0
field min 1500
field max 1500
field sum 3001500
field sqrsum 4502250000
attr interpolationmode linear
attr source payloadSignal
attr title "payload over time, stats"
attr unit B
statistic small_network.node1.app[1] payloadOverTime:histogram
field count 2001
field mean 1500
field stddev 0
field min 1500
field max 1500
field sum 3001500
field sqrsum 4502250000
attr interpolationmode linear
attr source payloadSignal
attr title "payload over time, histogram"
attr unit B
bin	-inf	0
bin	1499	0
bin	1500	2001
bin	1501	0
statistic small_network.node1.app[1] sendIntervalOverTime:stats
field count 0
field mean -nan
field stddev -nan
field min -nan
field max -nan
field sum 0
field sqrsum 0
attr interpolationmode linear
attr source intervalSignal
attr title "send interval over time, stats"
attr unit s
statistic small_network.node1.app[1] sendIntervalOverTime:histogram
field count 0
field mean -nan
field stddev -nan
field min -nan
field max -nan
field sum 0
field sqrsum 0
attr interpolationmode linear
attr source intervalSignal
attr title "send interval over time, histogram"
attr unit s
bin	-inf	0
bin	0	0
bin	1	0
statistic small_network.node1.app[2] payloadOverTime:stats
field count 2001
field mean 1500
field stddev 0
field min 1500
field max 1500
field sum 3001500
field sqrsum 4502250000
attr interpolationmode linear
attr source payloadSignal
attr title "payload over time, stats"
attr unit B
statistic small_network.node1.app[2] payloadOverTime:histogram
field count 2001
field mean 1500
field stddev 0
field min 1500
field max 1500
field sum 3001500
field sqrsum 4502250000
attr interpolationmode linear
attr source payloadSignal
attr title "payload over time, histogram"
attr unit B
bin	-inf	0
bin	1499	0
bin	1500	2001
bin	1501	0
statistic small_network.node1.app[2] sendIntervalOverTime:stats
field count 0
field mean -nan
field stddev -nan
field min -nan
field max -nan
field sum 0
field sqrsum 0
attr interpolationmode linear
attr source intervalSignal
attr title "send interval over time, stats"
attr unit s
statistic small_network.node1.app[2] sendIntervalOverTime:histogram
field count 0
field mean -nan
field stddev -nan
field min -nan
field max -nan
field sum 0
field sqrsum 0
attr interpolationmode linear
attr source intervalSignal
attr title "send interval over time, histogram"
attr unit s
bin	-inf	0
bin	0	0
bin	1	0
statistic small_network.node1.app[3] payloadOverTime:stats
field count 2001
field mean 1500
field stddev 0
field min 1500
field max 1500
field sum 3001500
field sqrsum 4502250000
attr interpolationmode linear
attr source payloadSignal
attr title "payload over time, stats"
attr unit B
statistic small_network.node1.app[3] payloadOverTime:histogram
field count 2001
field mean 1500
field stddev 0
field min 1500
field max 1500
field sum 3001500
field sqrsum 4502250000
attr interpolationmode linear
attr source payloadSignal
attr title "payload over time, histogram"
attr unit B
bin	-inf	0
bin	1499	0
bin	1500	2001
bin	1501	0
statistic small_network.node1.app[3] sendIntervalOverTime:stats
field count 0
field mean -nan
field stddev -nan
field min -nan
field max -nan
field sum 0
field sqrsum 0
attr interpolationmode linear
attr source intervalSignal
attr title "send interval over time, stats"
attr unit s
statistic small_network.node1.app[3] sendIntervalOverTime:histogram
field count 0
field mean -nan
field stddev -nan
field min -nan
field max -nan
field sum 0
field sqrsum 0
attr interpolationmode linear
attr source intervalSignal
attr title "send interval over time, histogram"
attr unit s
bin	-inf	0
bin	0	0
bin	1	0
statistic small_network.node1.app[4] payloadOverTime:stats
field count 2001
field mean 1500
field stddev 0
field min 1500
field max 1500
field sum 3001500
field sqrsum 4502250000
attr interpolationmode linear
attr source payloadSignal
attr title "payload over time, stats"
attr unit B
statistic small_network.node1.app[4] payloadOverTime:histogram
field count 2001
field mean 1500
field stddev 0
field min 1500
field max 1500
field sum 3001500
field sqrsum 4502250000
attr interpolationmode linear
attr source payloadSignal
attr title "payload over time, histogram"
attr unit B
bin	-inf	0
bin	1499	0
bin	1500	2001
bin	1501	0
statistic small_network.node1.app[4] sendIntervalOverTime:stats
field count 0
field mean -nan
field stddev -nan
field min -nan
field max -nan
field sum 0
field sqrsum 0
attr interpolationmode linear
attr source intervalSignal
attr title "send interval over time, stats"
attr unit s
statistic small_network.node1.app[4] sendIntervalOverTime:histogram
field count 0
field mean -nan
field stddev -nan
field min -nan
field max -nan
field sum 0
field sqrsum 0
attr interpolationmode linear
attr source intervalSignal
attr title "send interval over time, histogram"
attr unit s
bin	-inf	0
bin	0	0
bin	1	0
statistic small_network.node1.app[5] payloadOverTime:stats
field count 2001
field mean 1500
field stddev 0
field min 1500
field max 1500
field sum 3001500
field sqrsum 4502250000
attr interpolationmode linear
attr source payloadSignal
attr title "payload over time, stats"
attr unit B
statistic small_network.node1.app[5] payloadOverTime:histogram
field count 2001
field mean 1500
field stddev 0
field min 1500
field max 1500
field sum 3001500
field sqrsum 4502250000
attr interpolationmode linear
attr source payloadSignal
attr title "payload over time, histogram"
attr unit B
bin	-inf	0
bin	1499	0
bin	1500	2001
bin	1501	0
statistic small_network.node1.app[5] sendIntervalOverTime:stats
field count 0
field mean -nan
field stddev -nan
field min -nan
field max -nan
field sum 0
field sqrsum 0
attr interpolationmode linear
attr source intervalSignal
attr title "send interval over time, stats"
attr unit s
statistic small_network.node1.app[5] sendIntervalOverTime:histogram
field count 0
field mean -nan
field stddev -nan
field min -nan
field max -nan
field sum 0
field sqrsum 0
attr interpolationmode linear
attr source intervalSignal
attr title "send interval over time, histogram"
attr unit s
bin	-inf	0
bin	0	0
bin	1	0
statistic small_network.node1.app[6] payloadOverTime:stats
field count 200001
field mean 1500
field stddev 0
field min 1500
field max 1500
field sum 300001500
field sqrsum 450002250000
attr interpolationmode linear
attr source payloadSignal
attr title "payload over time, stats"
attr unit B
statistic small_network.node1.app[6] payloadOverTime:histogram
field count 200001
field mean 1500
field stddev 0
field min 1500
field max 1500
field sum 300001500
field sqrsum 450002250000
attr interpolationmode linear
attr source payloadSignal
attr title "payload over time, histogram"
attr unit B
bin	-inf	0
bin	1499	0
bin	1500	200001
bin	1501	0
statistic small_network.node1.app[6] sendIntervalOverTime:stats
field count 200001
field mean 5.0000000000116e-06
field stddev 0
field min 5e-06
field max 5e-06
field sum 1.0000050000023
field sqrsum 5.0000250000079e-06
attr interpolationmode linear
attr source intervalSignal
attr title "send interval over time, stats"
attr unit s
statistic small_network.node1.app[6] sendIntervalOverTime:histogram
field count 200001
field mean 5.0000000000116e-06
field stddev 0
field min 5e-06
field max 5e-06
field sum 1.0000050000023
field sqrsum 5.0000250000079e-06
attr interpolationmode linear
attr source intervalSignal
attr title "send interval over time, histogram"
attr unit s
bin	-inf	0
bin	0	200001
bin	0.01	0
bin	0.02	0
bin	0.03	0
bin	0.04	0
bin	0.05	0
bin	0.06	0
bin	0.07	0
bin	0.08	0
bin	0.09	0
bin	0.1	0
bin	0.11	0
bin	0.12	0
bin	0.13	0
bin	0.14	0
bin	0.15	0
bin	0.16	0
bin	0.17	0
bin	0.18	0
bin	0.19	0
bin	0.2	0
bin	0.21	0
bin	0.22	0
bin	0.23	0
bin	0.24	0
bin	0.25	0
bin	0.26	0
bin	0.27	0
bin	0.28	0
bin	0.29	0
bin	0.3	0
bin	0.31	0
bin	0.32	0
bin	0.33	0
bin	0.34	0
bin	0.35	0
bin	0.36	0
bin	0.37	0
bin	0.38	0
bin	0.39	0
bin	0.4	0
bin	0.41	0
bin	0.42	0
bin	0.43	0
bin	0.44	0
bin	0.45	0
bin	0.46	0
bin	0.47	0
bin	0.48	0
bin	0.49	0
bin	0.5	0
bin	0.51	0
scalar small_network.node1.bgIn dropped:sum 0
attr source dropped
attr title "Dropped frames, sum"
attr unit packets
scalar small_network.node1.bgIn rxPk:count 2
attr source rxPk
attr title "Received Packets, count"
attr unit packets
scalar small_network.node1.bgIn rxBytes:sum(packetBytes) 3036
attr interpolationmode none
attr source rxPk
attr title "Received Bytes, sum(packetBytes)"
attr unit B
statistic small_network.node1.bgIn rxBytes:histogram(packetBytes)
field count 2
field mean 1518
field stddev 0
field min 1518
field max 1518
field sum 3036
field sqrsum 4608648
attr interpolationmode none
attr source rxPk
attr title "Received Bytes, histogram(packetBytes)"
attr unit B
bin	-inf	0
bin	1517	0
bin	1518	2
bin	1519	0
statistic small_network.node1.bgIn rxLatency:stats
field count 2
field mean 0.0033863975
field stddev 0.00087002418357193
field min 0.0027711975
field max 0.0040015975
field sum 0.006772795
field sqrsum 2.3692318136012e-05
attr interpolationmode none
attr source messageAge(rxPk)
attr title "End-to-end latency (received), stats"
attr unit s
statistic small_network.node1.bgIn rxLatency:histogram
field count 2
field mean 0.0033863975
field stddev 0.00087002418357193
field min 0.0027711975
field max 0.0040015975
field sum 0.006772795
field sqrsum 2.3692318136012e-05
attr interpolationmode none
attr source messageAge(rxPk)
attr title "End-to-end latency (received), histogram"
attr unit s
bin	-inf	0
bin	0.00246	0
bin	0.00248	0
bin	0.0025	0
bin	0.00252	0
bin	0.00254	0
bin	0.00256	0
bin	0.00258	0
bin	0.0026	0
bin	0.00262	0
bin	0.00264	0
bin	0.00266	0
bin	0.00268	0
bin	0.0027	0
bin	0.00272	0
bin	0.00274	0
bin	0.00276	1
bin	0.00278	0
bin	0.0028	0
bin	0.00282	0
bin	0.00284	0
bin	0.00286	0
bin	0.00288	0
bin	0.0029	0
bin	0.00292	0
bin	0.00294	0
bin	0.00296	0
bin	0.00298	0
bin	0.003	0
bin	0.00302	0
bin	0.00304	0
bin	0.00306	0
bin	0.00308	0
bin	0.0031	0
bin	0.00312	0
bin	0.00314	0
bin	0.00316	0
bin	0.00318	0
bin	0.0032	0
bin	0.00322	0
bin	0.00324	0
bin	0.00326	0
bin	0.00328	0
bin	0.0033	0
bin	0.00332	0
bin	0.00334	0
bin	0.00336	0
bin	0.00338	0
bin	0.0034	0
bin	0.00342	0
bin	0.00344	0
bin	0.00346	0
bin	0.00348	0
bin	0.0035	0
bin	0.00352	0
bin	0.00354	0
bin	0.00356	0
bin	0.00358	0
bin	0.0036	0
bin	0.00362	0
bin	0.00364	0
bin	0.00366	0
bin	0.00368	0
bin	0.0037	0
bin	0.00372	0
bin	0.00374	0
bin	0.00376	0
bin	0.00378	0
bin	0.0038	0
bin	0.00382	0
bin	0.00384	0
bin	0.00386	0
bin	0.00388	0
bin	0.0039	0
bin	0.00392	0
bin	0.00394	0
bin	0.00396	0
bin	0.00398	0
bin	0.004	1
bin	0.00402	0
bin	0.00404	0
bin	0.00406	0
bin	0.00408	0
bin	0.0041	0
bin	0.00412	0
bin	0.00414	0
bin	0.00416	0
bin	0.00418	0
bin	0.0042	0
bin	0.00422	0
bin	0.00424	0
bin	0.00426	0
bin	0.00428	0
bin	0.0043	0
bin	0.00432	0
scalar small_network.node1.bgIn txPk:count 0
attr source txPk
attr title "Transmitted Packets, count"
attr unit packets
scalar small_network.node1.bgIn txBytes:sum(packetBytes) 0
attr interpolationmode none
attr source txPk
attr title "Transmitted Bytes, sum(packetBytes)"
attr unit B
statistic small_network.node1.bgIn txBytes:histogram(packetBytes)
field count 0
field mean -nan
field stddev -nan
field min -nan
field max -nan
field sum 0
field sqrsum 0
attr interpolationmode none
attr source txPk
attr title "Transmitted Bytes, histogram(packetBytes)"
attr unit B
bin	-inf	0
bin	0	0
bin	1	0
statistic small_network.node1.bgIn txLatency:stats
field count 0
field mean -nan
field stddev -nan
field min -nan
field max -nan
field sum 0
field sqrsum 0
attr interpolationmode none
attr source messageAge(txPk)
attr title "End-to-end latency (transmitted), stats"
attr unit s
statistic small_network.node1.bgIn txLatency:histogram
field count 0
field mean -nan
field stddev -nan
field min -nan
field max -nan
field sum 0
field sqrsum 0
attr interpolationmode none
attr source messageAge(txPk)
attr title "End-to-end latency (transmitted), histogram"
attr unit s
bin	-inf	0
bin	0	0
bin	1	0
scalar small_network.node1.bgOut dropped:sum 0
attr source dropped
attr title "Dropped frames, sum"
attr unit packets
scalar small_network.node1.bgOut rxPk:count 212007
attr source rxPk
attr title "Received Packets, count"
attr unit packets
scalar small_network.node1.bgOut rxBytes:sum(packetBytes) 321874650
attr interpolationmode none
attr source rxPk
attr title "Received Bytes, sum(packetBytes)"
attr unit B
statistic small_network.node1.bgOut rxBytes:histogram(packetBytes)
field count 212007
field mean 1518.2265208224
field stddev 0.92454077170636
field min 1518
field max 1522
field sum 321874650
field sqrsum 488678811228
attr interpolationmode none
attr source rxPk
attr title "Received Bytes, histogram(packetBytes)"
attr unit B
bin	-inf	0
bin	1517	0
bin	1518	200001
bin	1519	0
bin	1520	0
bin	1521	0
bin	1522	12006
bin	1523	0
statistic small_network.node1.bgOut rxLatency:stats
field count 212007
field mean 0
field stddev 0
field min 0
field max 0
field sum 0
field sqrsum 0
attr interpolationmode none
attr source messageAge(rxPk)
attr title "End-to-end latency (received), stats"
attr unit s
statistic small_network.node1.bgOut rxLatency:histogram
field count 212007
field mean 0
field stddev 0
field min 0
field max 0
field sum 0
field sqrsum 0
attr interpolationmode none
attr source messageAge(rxPk)
attr title "End-to-end latency (received), histogram"
attr unit s
bin	-inf	0
bin	-0.5	0
bin	-0.48	0
bin	-0.46	0
bin	-0.44	0
bin	-0.42	0
bin	-0.4	0
bin	-0.38	0
bin	-0.36	0
bin	-0.34	0
bin	-0.32	0
bin	-0.3	0
bin	-0.28	0
bin	-0.26	0
bin	-0.24	0
bin	-0.22	0
bin	-0.2	0
bin	-0.18	0
bin	-0.16	0
bin	-0.14	0
bin	-0.12	0
bin	-0.1	0
bin	-0.08	0
bin	-0.06	0
bin	-0.04	0
bin	-0.02	0
bin	0	212007
bin	0.02	0
bin	0.04	0
bin	0.06	0
bin	0.08	0
bin	0.1	0
bin	0.12	0
bin	0.14	0
bin	0.16	0
bin	0.18	0
bin	0.2	0
bin	0.22	0
bin	0.24	0
bin	0.26	0
bin	0.28	0
bin	0.3	0
bin	0.32	0
bin	0.34	0
bin	0.36	0
bin	0.38	0
bin	0.4	0
bin	0.42	0
bin	0.44	0
bin	0.46	0
bin	0.48	0
bin	0.5	0
scalar small_network.node1.bgOut txPk:count 212007
attr source txPk
attr title "Transmitted Packets, count"
attr unit packets
scalar small_network.node1.bgOut txBytes:sum(packetBytes) 321874650
attr interpolationmode none
attr source txPk
attr title "Transmitted Bytes, sum(packetBytes)"
attr unit B
statistic small_network.node1.bgOut txBytes:histogram(packetBytes)
field count 212007
field mean 1518.2265208224
field stddev 0.92454077170636
field min 1518
field max 1522
field sum 321874650
field sqrsum 488678811228
attr interpolationmode none
attr source txPk
attr title "Transmitted Bytes, histogram(packetBytes)"
attr unit B
bin	-inf	0
bin	1517	0
bin	1518	200001
bin	1519	0
bin	1520	0
bin	1521	0
bin	1522	12006
bin	1523	0
statistic small_network.node1.bgOut txLatency:stats
field count 212007
field mean 0
field stddev 0
field min 0
field max 0
field sum 0
field sqrsum 0
attr interpolationmode none
attr source messageAge(txPk)
attr title "End-to-end latency (transmitted), stats"
attr unit s
statistic small_network.node1.bgOut txLatency:histogram
field count 212007
field mean 0
field stddev 0
field min 0
field max 0
field sum 0
field sqrsum 0
attr interpolationmode none
attr source messageAge(txPk)
attr title "End-to-end latency (transmitted), histogram"
attr unit s
bin	-inf	0
bin	-0.5	0
bin	-0.48	0
bin	-0.46	0
bin	-0.44	0
bin	-0.42	0
bin	-0.4	0
bin	-0.38	0
bin	-0.36	0
bin	-0.34	0
bin	-0.32	0
bin	-0.3	0
bin	-0.28	0
bin	-0.26	0
bin	-0.24	0
bin	-0.22	0
bin	-0.2	0
bin	-0.18	0
bin	-0.16	0
bin	-0.14	0
bin	-0.12	0
bin	-0.1	0
bin	-0.08	0
bin	-0.06	0
bin	-0.04	0
bin	-0.02	0
bin	0	212007
bin	0.02	0
bin	0.04	0
bin	0.06	0
bin	0.08	0
bin	0.1	0
bin	0.12	0
bin	0.14	0
bin	0.16	0
bin	0.18	0
bin	0.2	0
bin	0.22	0
bin	0.24	0
bin	0.26	0
bin	0.28	0
bin	0.3	0
bin	0.32	0
bin	0.34	0
bin	0.36	0
bin	0.38	0
bin	0.4	0
bin	0.42	0
bin	0.44	0
bin	0.46	0
bin	0.48	0
bin	0.5	0
scalar small_network.node2.phy[0].shaper.queue[0] dropped:sum 0
attr source dropped
attr title "Dropped frames, sum"
attr unit packets
scalar small_network.node2.phy[0].shaper.queue[0] rxPk:count 2
attr source rxPk
attr title "Received Packets, count"
attr unit packets
scalar small_network.node2.phy[0].shaper.queue[0] rxBytes:sum(packetBytes) 3036
attr interpolationmode none
attr source rxPk
attr title "Received Bytes, sum(packetBytes)"
attr unit B
statistic small_network.node2.phy[0].shaper.queue[0] rxBytes:histogram(packetBytes)
field count 2
field mean 1518
field stddev 0
field min 1518
field max 1518
field sum 3036
field sqrsum 4608648
attr interpolationmode none
attr source rxPk
attr title "Received Bytes, histogram(packetBytes)"
attr unit B
bin	-inf	0
bin	1517	0
bin	1518	2
bin	1519	0
statistic small_network.node2.phy[0].shaper.queue[0] rxLatency:stats
field count 2
field mean 0
field stddev 0
field min 0
field max 0
field sum 0
field sqrsum 0
attr interpolationmode none
attr source messageAge(rxPk)
attr title "End-to-end latency (received), stats"
attr unit s
statistic small_network.node2.phy[0].shaper.queue[0] rxLatency:histogram
field count 2
field mean 0
field stddev 0
field min 0
field max 0
field sum 0
field sqrsum 0
attr interpolationmode none
attr source messageAge(rxPk)
attr title "End-to-end latency (received), histogram"
attr unit s
bin	-inf	0
bin	-0.5	0
bin	-0.48	0
bin	-0.46	0
bin	-0.44	0
bin	-0.42	0
bin	-0.4	0
bin	-0.38	0
bin	-0.36	0
bin	-0.34	0
bin	-0.32	0
bin	-0.3	0
bin	-0.28	0
bin	-0.26	0
bin	-0.24	0
bin	-0.22	0
bin	-0.2	0
bin	-0.18	0
bin	-0.16	0
bin	-0.14	0
bin	-0.12	0
bin	-0.1	0
bin	-0.08	0
bin	-0.06	0
bin	-0.04	0
bin	-0.02	0
bin	0	2
bin	0.02	0
bin	0.04	0
bin	0.06	0
bin	0.08	0
bin	0.1	0
bin	0.12	0
bin	0.14	0
bin	0.16	0
bin	0.18	0
bin	0.2	0
bin	0.22	0
bin	0.24	0
bin	0.26	0
bin	0.28	0
bin	0.3	0
bin	0.32	0
bin	0.34	0
bin	0.36	0
bin	0.38	0
bin	0.4	0
bin	0.42	0
bin	0.44	0
bin	0.46	0
bin	0.48	0
bin	0.5	0
scalar small_network.node2.phy[0].shaper.queue[0] txPk:count 0
attr source txPk
attr title "Transmitted Packets, count"
attr unit packets
scalar small_network.node2.phy[0].shaper.queue[0] txBytes:sum(packetBytes) 0
attr interpolationmode none
attr source txPk
attr title "Transmitted Bytes, sum(packetBytes)"
attr unit B
statistic small_network.node2.phy[0].shaper.queue[0] txBytes:histogram(packetBytes)
field count 0
field mean -nan
field stddev -nan
field min -nan
field max -nan
field sum 0
field sqrsum 0
attr interpolationmode none
attr source txPk
attr title "Transmitted Bytes, histogram(packetBytes)"
attr unit B
bin	-inf	0
bin	0	0
bin	1	0
statistic small_network.node2.phy[0].shaper.queue[0] txLatency:stats
field count 0
field mean -nan
field stddev -nan
field min -nan
field max -nan
field sum 0
field sqrsum 0
attr interpolationmode none
attr source messageAge(txPk)
[...]
field count 1
field mean 0
field stddev -nan
field min 0
field max 0
field sum 0
field sqrsum 0
attr interpolationmode none
attr title "Received Bytes, histogram(packetBytes)"
attr unit B
bin	-inf	0
bin	-0.5	0
bin	-0.48	0
bin	-0.46	0
bin	-0.44	0
bin	-0.42	0
bin	-0.4	0
bin	-0.38	0
bin	-0.36	0
bin	-0.34	0
bin	-0.32	0
bin	-0.3	0
bin	-0.28	0
bin	-0.26	0
bin	-0.24	0
bin	-0.22	0
bin	-0.2	0
bin	-0.18	0
bin	-0.16	0
bin	-0.14	0
bin	-0.12	0
bin	-0.1	0
bin	-0.08	0
bin	-0.06	0
bin	-0.04	0
bin	-0.02	0
bin	0	1
bin	0.02	0
bin	0.04	0
bin	0.06	0
bin	0.08	0
bin	0.1	0
bin	0.12	0
bin	0.14	0
bin	0.16	0
bin	0.18	0
bin	0.2	0
bin	0.22	0
bin	0.24	0
bin	0.26	0
bin	0.28	0
bin	0.3	0
bin	0.32	0
bin	0.34	0
bin	0.36	0
bin	0.38	0
bin	0.4	0
bin	0.42	0
bin	0.44	0
bin	0.46	0
bin	0.48	0
bin	0.5	0
statistic small_network.switch1.phy[1].shaper.transmissionSelection qPcp4Latency:stats
field count 1
field mean 0
field stddev -nan
field min 0
field max 0
field sum 0
field sqrsum 0
attr interpolationmode none
attr title "End-to-end latency, stats"
attr unit s
statistic small_network.switch1.phy[1].shaper.transmissionSelection qPcp4Latency:histogram
field count 1
field mean 0
field stddev -nan
field min 0
field max 0
field sum 0
field sqrsum 0
attr interpolationmode none
attr title "End-to-end latency, histogram"
attr unit s
bin	-inf	0
bin	-0.5	0
bin	-0.48	0
bin	-0.46	0
bin	-0.44	0
bin	-0.42	0
bin	-0.4	0
bin	-0.38	0
bin	-0.36	0
bin	-0.34	0
bin	-0.32	0
bin	-0.3	0
bin	-0.28	0
bin	-0.26	0
bin	-0.24	0
bin	-0.22	0
bin	-0.2	0
bin	-0.18	0
bin	-0.16	0
bin	-0.14	0
bin	-0.12	0
bin	-0.1	0
bin	-0.08	0
bin	-0.06	0
bin	-0.04	0
bin	-0.02	0
bin	0	1
bin	0.02	0
bin	0.04	0
bin	0.06	0
bin	0.08	0
bin	0.1	0
bin	0.12	0
bin	0.14	0
bin	0.16	0
bin	0.18	0
bin	0.2	0
bin	0.22	0
bin	0.24	0
bin	0.26	0
bin	0.28	0
bin	0.3	0
bin	0.32	0
bin	0.34	0
bin	0.36	0
bin	0.38	0
bin	0.4	0
bin	0.42	0
bin	0.44	0
bin	0.46	0
bin	0.48	0
bin	0.5	0
scalar small_network.switch1.phy[1].shaper.transmissionSelection qPcp4Pk:count 1
attr title "Received Packets, count"
attr unit packets
scalar small_network.switch1.phy[1].shaper.transmissionSelection qPcp4Bytes:sum(packetBytes) 0
attr interpolationmode none
attr title "Received Bytes, sum(packetBytes)"
attr unit B
statistic small_network.switch1.phy[1].shaper.transmissionSelection qPcp4Bytes:histogram(packetBytes)
field count 1
field mean 0
field stddev -nan
field min 0
field max 0
field sum 0
field sqrsum 0
attr interpolationmode none
attr title "Received Bytes, histogram(packetBytes)"
attr unit B
bin	-inf	0
bin	-0.5	0
bin	-0.48	0
bin	-0.46	0
bin	-0.44	0
bin	-0.42	0
bin	-0.4	0
bin	-0.38	0
bin	-0.36	0
bin	-0.34	0
bin	-0.32	0
bin	-0.3	0
bin	-0.28	0
bin	-0.26	0
bin	-0.24	0
bin	-0.22	0
bin	-0.2	0
bin	-0.18	0
bin	-0.16	0
bin	-0.14	0
bin	-0.12	0
bin	-0.1	0
bin	-0.08	0
bin	-0.06	0
bin	-0.04	0
bin	-0.02	0
bin	0	1
bin	0.02	0
bin	0.04	0
bin	0.06	0
bin	0.08	0
bin	0.1	0
bin	0.12	0
bin	0.14	0
bin	0.16	0
bin	0.18	0
bin	0.2	0
bin	0.22	0
bin	0.24	0
bin	0.26	0
bin	0.28	0
bin	0.3	0
bin	0.32	0
bin	0.34	0
bin	0.36	0
bin	0.38	0
bin	0.4	0
bin	0.42	0
bin	0.44	0
bin	0.46	0
bin	0.48	0
bin	0.5	0
statistic small_network.switch1.phy[1].shaper.transmissionSelection qPcp3Latency:stats
field count 1
field mean 0
field stddev -nan
field min 0
field max 0
field sum 0
field sqrsum 0
attr interpolationmode none
attr title "End-to-end latency, stats"
attr unit s
statistic small_network.switch1.phy[1].shaper.transmissionSelection qPcp3Latency:histogram
field count 1
field mean 0
field stddev -nan
field min 0
field max 0
field sum 0
field sqrsum 0
attr interpolationmode none
attr title "End-to-end latency, histogram"
attr unit s
bin	-inf	0
bin	-0.5	0
bin	-0.48	0
bin	-0.46	0
bin	-0.44	0
bin	-0.42	0
bin	-0.4	0
bin	-0.38	0
bin	-0.36	0
bin	-0.34	0
bin	-0.32	0
bin	-0.3	0
bin	-0.28	0
bin	-0.26	0
bin	-0.24	0
bin	-0.22	0
bin	-0.2	0
bin	-0.18	0
bin	-0.16	0
bin	-0.14	0
bin	-0.12	0
bin	-0.1	0
bin	-0.08	0
bin	-0.06	0
bin	-0.04	0
bin	-0.02	0
bin	0	1
bin	0.02	0
bin	0.04	0
bin	0.06	0
bin	0.08	0
bin	0.1	0
bin	0.12	0
bin	0.14	0
bin	0.16	0
bin	0.18	0
bin	0.2	0
bin	0.22	0
bin	0.24	0
bin	0.26	0
bin	0.28	0
bin	0.3	0
bin	0.32	0
bin	0.34	0
bin	0.36	0
bin	0.38	0
bin	0.4	0
bin	0.42	0
bin	0.44	0
bin	0.46	0
bin	0.48	0
bin	0.5	0
scalar small_network.switch1.phy[1].shaper.transmissionSelection qPcp3Pk:count 1
attr title "Received Packets, count"
attr unit packets
scalar small_network.switch1.phy[1].shaper.transmissionSelection qPcp3Bytes:sum(packetBytes) 0
attr interpolationmode none
attr title "Received Bytes, sum(packetBytes)"
attr unit B
statistic small_network.switch1.phy[1].shaper.transmissionSelection qPcp3Bytes:histogram(packetBytes)
field count 1
field mean 0
field stddev -nan
field min 0
field max 0
field sum 0
field sqrsum 0
attr interpolationmode none
attr title "Received Bytes, histogram(packetBytes)"
attr unit B
bin	-inf	0
bin	-0.5	0
bin	-0.48	0
bin	-0.46	0
bin	-0.44	0
bin	-0.42	0
bin	-0.4	0
bin	-0.38	0
bin	-0.36	0
bin	-0.34	0
bin	-0.32	0
bin	-0.3	0
bin	-0.28	0
bin	-0.26	0
bin	-0.24	0
bin	-0.22	0
bin	-0.2	0
bin	-0.18	0
bin	-0.16	0
bin	-0.14	0
bin	-0.12	0
bin	-0.1	0
bin	-0.08	0
bin	-0.06	0
bin	-0.04	0
bin	-0.02	0
bin	0	1
bin	0.02	0
bin	0.04	0
bin	0.06	0
bin	0.08	0
bin	0.1	0
bin	0.12	0
bin	0.14	0
bin	0.16	0
bin	0.18	0
bin	0.2	0
bin	0.22	0
bin	0.24	0
bin	0.26	0
bin	0.28	0
bin	0.3	0
bin	0.32	0
bin	0.34	0
bin	0.36	0
bin	0.38	0
bin	0.4	0
bin	0.42	0
bin	0.44	0
bin	0.46	0
bin	0.48	0
bin	0.5	0
statistic small_network.switch1.phy[1].shaper.transmissionSelection qPcp2Latency:stats
field count 1
field mean 0
field stddev -nan
field min 0
field max 0
field sum 0
field sqrsum 0
attr interpolationmode none
attr title "End-to-end latency, stats"
attr unit s
statistic small_network.switch1.phy[1].shaper.transmissionSelection qPcp2Latency:histogram
field count 1
field mean 0
field stddev -nan
field min 0
field max 0
field sum 0
field sqrsum 0
attr interpolationmode none
attr title "End-to-end latency, histogram"
attr unit s
bin	-inf	0
bin	-0.5	0
bin	-0.48	0
bin	-0.46	0
bin	-0.44	0
bin	-0.42	0
bin	-0.4	0
bin	-0.38	0
bin	-0.36	0
bin	-0.34	0
bin	-0.32	0
bin	-0.3	0
bin	-0.28	0
bin	-0.26	0
bin	-0.24	0
bin	-0.22	0
bin	-0.2	0
bin	-0.18	0
bin	-0.16	0
bin	-0.14	0
bin	-0.12	0
bin	-0.1	0
bin	-0.08	0
bin	-0.06	0
bin	-0.04	0
bin	-0.02	0
bin	0	1
bin	0.02	0
bin	0.04	0
bin	0.06	0
bin	0.08	0
bin	0.1	0
bin	0.12	0
bin	0.14	0
bin	0.16	0
bin	0.18	0
bin	0.2	0
bin	0.22	0
bin	0.24	0
bin	0.26	0
bin	0.28	0
bin	0.3	0
bin	0.32	0
bin	0.34	0
bin	0.36	0
bin	0.38	0
bin	0.4	0
bin	0.42	0
bin	0.44	0
bin	0.46	0
bin	0.48	0
bin	0.5	0
scalar small_network.switch1.phy[1].shaper.transmissionSelection qPcp2Pk:count 1
attr title "Received Packets, count"
attr unit packets
scalar small_network.switch1.phy[1].shaper.transmissionSelection qPcp2Bytes:sum(packetBytes) 0
attr interpolationmode none
attr title "Received Bytes, sum(packetBytes)"
attr unit B
statistic small_network.switch1.phy[1].shaper.transmissionSelection qPcp2Bytes:histogram(packetBytes)
field count 1
field mean 0
field stddev -nan
field min 0
field max 0
field sum 0
field sqrsum 0
attr interpolationmode none
attr title "Received Bytes, histogram(packetBytes)"
attr unit B
bin	-inf	0
bin	-0.5	0
bin	-0.48	0
bin	-0.46	0
bin	-0.44	0
bin	-0.42	0
bin	-0.4	0
bin	-0.38	0
bin	-0.36	0
bin	-0.34	0
bin	-0.32	0
bin	-0.3	0
bin	-0.28	0
bin	-0.26	0
bin	-0.24	0
bin	-0.22	0
bin	-0.2	0
bin	-0.18	0
bin	-0.16	0
bin	-0.14	0
bin	-0.12	0
bin	-0.1	0
bin	-0.08	0
bin	-0.06	0
bin	-0.04	0
bin	-0.02	0
bin	0	1
bin	0.02	0
bin	0.04	0
bin	0.06	0
bin	0.08	0
bin	0.1	0
bin	0.12	0
bin	0.14	0
bin	0.16	0
bin	0.18	0
bin	0.2	0
bin	0.22	0
bin	0.24	0
bin	0.26	0
bin	0.28	0
bin	0.3	0
bin	0.32	0
bin	0.34	0
bin	0.36	0
bin	0.38	0
bin	0.4	0
bin	0.42	0
bin	0.44	0
bin	0.46	0
bin	0.48	0
bin	0.5	0
statistic small_network.switch1.phy[1].shaper.transmissionSelection qPcp1Latency:stats
field count 1
field mean 0
field stddev -nan
field min 0
field max 0
field sum 0
field sqrsum 0
attr interpolationmode none
attr title "End-to-end latency, stats"
attr unit s
statistic small_network.switch1.phy[1].shaper.transmissionSelection qPcp1Latency:histogram
field count 1
field mean 0
field stddev -nan
field min 0
field max 0
field sum 0
field sqrsum 0
attr interpolationmode none
attr title "End-to-end latency, histogram"
attr unit s
bin	-inf	0
bin	-0.5	0
bin	-0.48	0
bin	-0.46	0
bin	-0.44	0
bin	-0.42	0
bin	-0.4	0
bin	-0.38	0
bin	-0.36	0
bin	-0.34	0
bin	-0.32	0
bin	-0.3	0
bin	-0.28	0
bin	-0.26	0
bin	-0.24	0
bin	-0.22	0
bin	-0.2	0
bin	-0.18	0
bin	-0.16	0
bin	-0.14	0
bin	-0.12	0
bin	-0.1	0
bin	-0.08	0
bin	-0.06	0
bin	-0.04	0
bin	-0.02	0
bin	0	1
bin	0.02	0
bin	0.04	0
bin	0.06	0
bin	0.08	0
bin	0.1	0
bin	0.12	0
bin	0.14	0
bin	0.16	0
bin	0.18	0
bin	0.2	0
bin	0.22	0
bin	0.24	0
bin	0.26	0
bin	0.28	0
bin	0.3	0
bin	0.32	0
bin	0.34	0
bin	0.36	0
bin	0.38	0
bin	0.4	0
bin	0.42	0
bin	0.44	0
bin	0.46	0
bin	0.48	0
bin	0.5	0
scalar small_network.switch1.phy[1].shaper.transmissionSelection qPcp1Pk:count 1
attr title "Received Packets, count"
attr unit packets
scalar small_network.switch1.phy[1].shaper.transmissionSelection qPcp1Bytes:sum(packetBytes) 0
attr interpolationmode none
attr title "Received Bytes, sum(packetBytes)"
attr unit B
statistic small_network.switch1.phy[1].shaper.transmissionSelection qPcp1Bytes:histogram(packetBytes)
field count 1
field mean 0
field stddev -nan
field min 0
field max 0
field sum 0
field sqrsum 0
attr interpolationmode none
attr title "Received Bytes, histogram(packetBytes)"
attr unit B
bin	-inf	0
bin	-0.5	0
bin	-0.48	0
bin	-0.46	0
bin	-0.44	0
bin	-0.42	0
bin	-0.4	0
bin	-0.38	0
bin	-0.36	0
bin	-0.34	0
bin	-0.32	0
bin	-0.3	0
bin	-0.28	0
bin	-0.26	0
bin	-0.24	0
bin	-0.22	0
bin	-0.2	0
bin	-0.18	0
bin	-0.16	0
bin	-0.14	0
bin	-0.12	0
bin	-0.1	0
bin	-0.08	0
bin	-0.06	0
bin	-0.04	0
bin	-0.02	0
bin	0	1
bin	0.02	0
bin	0.04	0
bin	0.06	0
bin	0.08	0
bin	0.1	0
bin	0.12	0
bin	0.14	0
bin	0.16	0
bin	0.18	0
bin	0.2	0
bin	0.22	0
bin	0.24	0
bin	0.26	0
bin	0.28	0
bin	0.3	0
bin	0.32	0
bin	0.34	0
bin	0.36	0
bin	0.38	0
bin	0.4	0
bin	0.42	0
bin	0.44	0
bin	0.46	0
bin	0.48	0
bin	0.5	0
statistic small_network.switch1.phy[1].shaper.transmissionSelection qPcp0Latency:stats
field count 2
field mean 0.00061440125
field stddev 0.00086889458048898
field min 0
field max 0.0012288025
field sum 0.0012288025
field sqrsum 1.5099555840062e-06
attr interpolationmode none
attr title "End-to-end latency, stats"
attr unit s
statistic small_network.switch1.phy[1].shaper.transmissionSelection qPcp0Latency:histogram
field count 2
field mean 0.00061440125
field stddev 0.00086889458048898
field min 0
field max 0.0012288025
field sum 0.0012288025
field sqrsum 1.5099555840062e-06
attr interpolationmode none
attr title "End-to-end latency, histogram"
attr unit s
bin	-inf	0
bin	0	1
bin	2e-05	0
bin	4e-05	0
bin	6e-05	0
bin	8e-05	0
bin	0.0001	0
bin	0.00012	0
bin	0.00014	0
bin	0.00016	0
bin	0.00018	0
bin	0.0002	0
bin	0.00022	0
bin	0.00024	0
bin	0.00026	0
bin	0.00028	0
bin	0.0003	0
bin	0.00032	0
bin	0.00034	0
bin	0.00036	0
bin	0.00038	0
bin	0.0004	0
bin	0.00042	0
bin	0.00044	0
bin	0.00046	0
bin	0.00048	0
bin	0.0005	0
bin	0.00052	0
bin	0.00054	0
bin	0.00056	0
bin	0.00058	0
bin	0.0006	0
bin	0.00062	0
bin	0.00064	0
bin	0.00066	0
bin	0.00068	0
bin	0.0007	0
bin	0.00072	0
bin	0.00074	0
bin	0.00076	0
bin	0.00078	0
bin	0.0008	0
bin	0.00082	0
bin	0.00084	0
bin	0.00086	0
bin	0.00088	0
bin	0.0009	0
bin	0.00092	0
bin	0.00094	0
bin	0.00096	0
bin	0.00098	0
bin	0.001	0
bin	0.00102	0
bin	0.00104	0
bin	0.00106	0
bin	0.00108	0
bin	0.0011	0
bin	0.00112	0
bin	0.00114	0
bin	0.00116	0
bin	0.00118	0
bin	0.0012	0
bin	0.00122	1
bin	0.00124	0
bin	0.00126	0
bin	0.00128	0
bin	0.0013	0
bin	0.00132	0
bin	0.00134	0
bin	0.00136	0
bin	0.00138	0
bin	0.0014	0
bin	0.00142	0
bin	0.00144	0
bin	0.00146	0
bin	0.00148	0
bin	0.0015	0
bin	0.00152	0
bin	0.00154	0
scalar small_network.switch1.phy[1].shaper.transmissionSelection qPcp0Pk:count 2
attr title "Received Packets, count"
attr unit packets
scalar small_network.switch1.phy[1].shaper.transmissionSelection qPcp0Bytes:sum(packetBytes) 1518
attr interpolationmode none
attr title "Received Bytes, sum(packetBytes)"
attr unit B
statistic small_network.switch1.phy[1].shaper.transmissionSelection qPcp0Bytes:histogram(packetBytes)
field count 2
field mean 759
field stddev 1073.3880938412
field min 0
field max 1518
field sum 1518
field sqrsum 2304324
attr interpolationmode none
attr title "Received Bytes, histogram(packetBytes)"
attr unit B
bin	-inf	0
bin	0	1
bin	20	0
bin	40	0
bin	60	0
bin	80	0
bin	100	0
bin	120	0
bin	140	0
bin	160	0
bin	180	0
bin	200	0
bin	220	0
bin	240	0
bin	260	0
bin	280	0
bin	300	0
bin	320	0
bin	340	0
bin	360	0
bin	380	0
bin	400	0
bin	420	0
bin	440	0
bin	460	0
bin	480	0
bin	500	0
bin	520	0
bin	540	0
bin	560	0
bin	580	0
bin	600	0
bin	620	0
bin	640	0
bin	660	0
bin	680	0
bin	700	0
bin	720	0
bin	740	0
bin	760	0
bin	780	0
bin	800	0
bin	820	0
bin	840	0
bin	860	0
bin	880	0
bin	900	0
bin	920	0
bin	940	0
bin	960	0
bin	980	0
bin	1000	0
bin	1020	0
bin	1040	0
bin	1060	0
bin	1080	0
bin	1100	0
bin	1120	0
bin	1140	0
bin	1160	0
bin	1180	0
bin	1200	0
bin	1220	0
bin	1240	0
bin	1260	0
bin	1280	0
bin	1300	0
bin	1320	0
bin	1340	0
bin	1360	0
bin	1380	0
bin	1400	0
bin	1420	0
bin	1440	0
bin	1460	0
bin	1480	0
bin	1500	1
bin	1520	0
bin	1540	0
bin	1560	0
bin	1580	0
bin	1600	0
bin	1620	0
bin	1640	0
bin	1660	0
bin	1680	0
bin	1700	0
bin	1720	0
bin	1740	0
bin	1760	0
bin	1780	0
bin	1800	0
bin	1820	0
bin	1840	0
bin	1860	0
bin	1880	0
bin	1900	0
statistic small_network.switch1.phy[1].inControl rxLatency:stats
field count 2
field mean 0.0018360025
field stddev 0.00087002418357193
field min 0.0012208025
field max 0.0024512025
field sum 0.003672005
field sqrsum 7.4987524400125e-06
attr interpolationmode none
attr source messageAge(rxPk)
attr title "End-to-end latency (received), stats"
attr unit s
statistic small_network.switch1.phy[1].inControl rxLatency:histogram
field count 2
field mean 0.0018360025
field stddev 0.00087002418357193
field min 0.0012208025
field max 0.0024512025
field sum 0.003672005
field sqrsum 7.4987524400125e-06
attr interpolationmode none
attr source messageAge(rxPk)
attr title "End-to-end latency (received), histogram"
attr unit s
bin	-inf	0
bin	0.0009	0
bin	0.00092	0
bin	0.00094	0
bin	0.00096	0
bin	0.00098	0
bin	0.001	0
bin	0.00102	0
bin	0.00104	0
bin	0.00106	0
bin	0.00108	0
bin	0.0011	0
bin	0.00112	0
bin	0.00114	0
bin	0.00116	0
bin	0.00118	0
bin	0.0012	0
bin	0.00122	1
bin	0.00124	0
bin	0.00126	0
bin	0.00128	0
bin	0.0013	0
bin	0.00132	0
bin	0.00134	0
bin	0.00136	0
bin	0.00138	0
bin	0.0014	0
bin	0.00142	0
bin	0.00144	0
bin	0.00146	0
bin	0.00148	0
bin	0.0015	0
bin	0.00152	0
bin	0.00154	0
bin	0.00156	0
bin	0.00158	0
bin	0.0016	0
bin	0.00162	0
bin	0.00164	0
bin	0.00166	0
bin	0.00168	0
bin	0.0017	0
bin	0.00172	0
bin	0.00174	0
bin	0.00176	0
bin	0.00178	0
bin	0.0018	0
bin	0.00182	0
bin	0.00184	0
bin	0.00186	0
bin	0.00188	0
bin	0.0019	0
bin	0.00192	0
bin	0.00194	0
bin	0.00196	0
bin	0.00198	0
bin	0.002	0
bin	0.00202	0
bin	0.00204	0
bin	0.00206	0
bin	0.00208	0
bin	0.0021	0
bin	0.00212	0
bin	0.00214	0
bin	0.00216	0
bin	0.00218	0
bin	0.0022	0
bin	0.00222	0
bin	0.00224	0
bin	0.00226	0
bin	0.00228	0
bin	0.0023	0
bin	0.00232	0
bin	0.00234	0
bin	0.00236	0
bin	0.00238	0
bin	0.0024	0
bin	0.00242	0
bin	0.00244	1
bin	0.00246	0
bin	0.00248	0
bin	0.0025	0
bin	0.00252	0
bin	0.00254	0
bin	0.00256	0
bin	0.00258	0
bin	0.0026	0
bin	0.00262	0
bin	0.00264	0
bin	0.00266	0
bin	0.00268	0
bin	0.0027	0
bin	0.00272	0
bin	0.00274	0
bin	0.00276	0
scalar small_network.switch1.phy[1].mac "simulated time" 1
scalar small_network.switch1.phy[1].mac full-duplex 1
scalar small_network.switch1.phy[1].mac "frames/sec sent" 809
scalar small_network.switch1.phy[1].mac "frames/sec rcvd" 2
scalar small_network.switch1.phy[1].mac "bits/sec sent" 9850352
scalar small_network.switch1.phy[1].mac "bits/sec rcvd" 24288
scalar small_network.switch1.phy[1].mac "rx channel idle (%)" 99.75584
scalar small_network.switch1.phy[1].mac "rx channel utilization (%)" 0.24416
scalar small_network.switch1.phy[1].mac droppedPkNotForUs:count 0
attr interpolationmode none
attr source dropPkNotForUs
attr title "packets dropped/not for us, count"
scalar small_network.switch1.phy[1].mac droppedPkNotForUs:sum(packetBytes) 0
attr interpolationmode none
attr source dropPkNotForUs
attr title "packets dropped/not for us, sum(packetBytes)"
scalar small_network.switch1.phy[1].mac droppedPkIfaceDown:count 0
attr interpolationmode none
attr source dropPkIfaceDown
attr title "packets dropped/interface down, count"
scalar small_network.switch1.phy[1].mac droppedPkIfaceDown:sum(packetBytes) 0
attr interpolationmode none
attr source dropPkIfaceDown
attr title "packets dropped/interface down, sum(packetBytes)"
scalar small_network.switch1.phy[1].mac droppedPkBitError:count 0
attr interpolationmode none
attr source dropPkBitError
attr title "packets dropped/bit error, count"
scalar small_network.switch1.phy[1].mac droppedPkBitError:sum(packetBytes) 0
attr interpolationmode none
attr source dropPkBitError
attr title "packets dropped/bit error, sum(packetBytes)"
scalar small_network.switch1.phy[1].mac rxPkFromHL:count 810
attr interpolationmode none
attr source rxPkFromHL
attr title "packet bytes from higher layer, count"
scalar small_network.switch1.phy[1].mac rxPkFromHL:sum(packetBytes) 1232816
attr interpolationmode none
attr source rxPkFromHL
attr title "packet bytes from higher layer, sum(packetBytes)"
scalar small_network.switch1.phy[1].mac rxPausePkUnits:count 0
attr interpolationmode none
attr title "pause units received, count"
scalar small_network.switch1.phy[1].mac rxPausePkUnits:sum 0
attr interpolationmode none
attr title "pause units received, sum"
scalar small_network.switch1.phy[1].mac txPausePkUnits:count 0
attr interpolationmode none
attr title "pause units sent, count"
scalar small_network.switch1.phy[1].mac txPausePkUnits:sum 0
attr interpolationmode none
attr title "pause units sent, sum"
scalar small_network.switch1.phy[1].mac rxPkOk:count 2
attr interpolationmode none
attr source rxPkOk
attr title "packets received OK, count"
scalar small_network.switch1.phy[1].mac rxPkOk:sum(packetBytes) 3036
attr interpolationmode none
attr source rxPkOk
attr title "packets received OK, sum(packetBytes)"
scalar small_network.switch1.phy[1].mac txPk:count 809
attr interpolationmode none
attr source txPk
attr title "packets transmitted, count"
scalar small_network.switch1.phy[1].mac txPk:sum(packetBytes) 1231294
attr interpolationmode none
attr source txPk
attr title "packets transmitted, sum(packetBytes)"
scalar small_network.switch1.phy[1].mac passedUpPk:count 2
attr interpolationmode none
attr source packetSentToUpper
attr title "packets passed to higher layer, count"
scalar small_network.switch1.phy[1].mac passedUpPk:sum(packetBytes) 3036
attr interpolationmode none
attr source packetSentToUpper
attr title "packets passed to higher layer, sum(packetBytes)"
scalar small_network.switch1.avbCTC dropped:count 0
attr source droppedPk
attr title "Packets Dropped, count"
scalar small_network.switch1.avbCTC rxPk:count 0
attr source rxPk
attr title "Received Packets, count"
scalar small_network.switch1.avbCTC rxBytes:sum(packetBytes) 0
attr interpolationmode none
attr source rxPk
attr title "Received Bytes, sum(packetBytes)"
attr unit B
statistic small_network.switch1.avbCTC latency:stats
field count 0
field mean -nan
field stddev -nan
field min -nan
field max -nan
field sum 0
field sqrsum 0
attr interpolationmode none
attr source messageAge(rxPk)
attr title "End-to-end latency, stats"
attr unit s
statistic small_network.switch1.avbCTC latency:histogram
field count 0
field mean -nan
field stddev -nan
field min -nan
field max -nan
field sum 0
field sqrsum 0
attr interpolationmode none
attr source messageAge(rxPk)
attr title "End-to-end latency, histogram"
attr unit s
bin	-inf	0
bin	0	0
bin	1	0
scalar small_network.switch1.scheduler.period[0] numberOfCycles:count 199
attr interpolationmode none
attr source newCycle
attr title "Number of cycle, count"

