version 2
run General-0-20191205-14:05:24-5904
attr configname General
attr datetime 20191205-14:05:24
attr experiment General
attr inifile omnetpp.ini
attr iterationvars ""
attr iterationvarsf ""
attr measurement ""
attr network small_network
attr processid 5904
attr repetition 0
attr replication #0
attr resultdir results
attr runnumber 0
attr seedset 0
param **.scheduler.tick 80ns
param **.scheduler.numPeriods 1
param **.scheduler.period[0].cycle_ticks sec_to_tick(0.005s)
param **.scheduler.oscillator.max_drift 2800ppm
param **.scheduler.oscillator.drift_change uniform(-75ppm,75ppm)
param **.precission 16ns
param **.gateControlList.period "\"period[0]\""
param **.node1.phy[*].mac.address "\"0A-00-00-00-00-01\""
param **.node1.numApps 3
param **.node1.app[0].typename "\"BGTrafficSourceApp\""
param **.node1.app[0].destAddress "\"0A-00-00-00-00-02\""
param **.node1.app[0].payload "intWithUnit(uniform(18Byte, 18Byte))"
param **.node1.app[0].sendInterval 0.01ms
param **.node1.app[1].typename "\"IEEE8021QTrafficSourceApp\""
param **.node1.app[1].destAddress "\"0A-00-00-00-00-03\""
param **.node1.app[1].payload "intWithUnit(uniform(18Byte, 18Byte))"
param **.node1.app[1].sendInterval 0.1ms
param **.node1.app[1].priority 5
param **.node1.app[1].vid 0
param **.node1.app[2].typename "\"IEEE8021QTrafficSourceApp\""
param **.node1.app[2].destAddress "\"0A-00-00-00-00-03\""
param **.node1.app[2].payload "intWithUnit(uniform(18Byte, 18Byte))"
param **.node1.app[2].sendInterval 0.025ms
param **.node1.app[2].priority 7
param **.node1.app[2].vid 0
param **.node1.phy[*].taggedVIDs "\"0\""
param **.node2.phy[*].mac.address "\"0A-00-00-00-00-02\""
param **.node2.numApps 1
param **.node2.app[0].typename "\"BGTrafficSinkApp\""
param **.node2.app[0].srcAddress "\"0A-00-00-00-00-01\""
param **.node2.bgIn.destination_gates "\"app[0].in\""
param **.node3.phy[*].mac.address "\"0A-00-00-00-00-03\""
param **.node3.numApps 1
param **.node3.app[0].typename "\"IEEE8021QTrafficSinkApp\""
param **.node3.app[0].srcAddress "\"0A-00-00-00-00-01\""
param **.node3.bgIn.destination_gates "\"app[0].in\""
param **.switch1.phy[0].taggedVIDs "\"0,1,2,3,4,5,6,7\""
param **.switch1.phy[1].untaggedVID 7
param **.switch1.phy[1].taggedVIDs "\"0,1,2,3,4,5,6,7\""
param **.switch1.phy[*].shaper.transmissionSelectionAlgorithm[6].typename "\"CreditBasedShaper\""
param **.switch1.phy[*].shaper.transmissionSelectionAlgorithm[6].srClass "\"B\""
param **.switch1.phy[*].shaper.gateControlList.controlList "\"o,o,o,o,o,C,C,o:0;o,o,C,C,C,C,C,o:0.002;C,C,C,C,C,o,o,o:0.003;o,C,C,C,C,C,C,o:0.004\""

scalar small_network.node1.ethg$o.channel packetsDiscarded:count 0
attr interpolationmode none
attr source constant1(messageDiscarded)
scalar small_network.node1.ethg$o.channel utilization:last 0.086400526233472
attr source timeavg(channelBusy)
scalar small_network.node1.ethg$o.channel packets:count 150001
attr interpolationmode none
attr source constant1(messageSent)
scalar small_network.node1.ethg$o.channel packetBytes:sum 10800072
attr interpolationmode none
attr source packetBytes(messageSent)
attr unit B
scalar small_network.node1.ethg$o.channel throughput:last 86400576
attr source sumPerDuration(packetBits(messageSent))
attr unit bps
scalar small_network.node2.ethg$o.channel packetsDiscarded:count 0
attr interpolationmode none
attr source constant1(messageDiscarded)
scalar small_network.node2.ethg$o.channel utilization:last 0.059180108907839
attr source timeavg(channelBusy)
scalar small_network.node2.ethg$o.channel packets:count 1
attr interpolationmode none
attr source constant1(messageSent)
scalar small_network.node2.ethg$o.channel packetBytes:sum 72
attr interpolationmode none
attr source packetBytes(messageSent)
attr unit B
scalar small_network.node2.ethg$o.channel throughput:last 62902697.389975
attr source sumPerDuration(packetBits(messageSent))
attr unit bps
scalar small_network.switch1.ethg$o[0].channel packetsDiscarded:count 0
attr interpolationmode none
attr source constant1(messageDiscarded)
scalar small_network.switch1.ethg$o[0].channel utilization:last 0.06068427845234
attr source timeavg(channelBusy)
scalar small_network.switch1.ethg$o[0].channel packets:count 2
attr interpolationmode none
attr source constant1(messageSent)
scalar small_network.switch1.ethg$o[0].channel packetBytes:sum 144
attr interpolationmode none
attr source packetBytes(messageSent)
attr unit B
scalar small_network.switch1.ethg$o[0].channel throughput:last 62583186.201277
attr source sumPerDuration(packetBits(messageSent))
attr unit bps
scalar small_network.switch1.ethg$o[1].channel packetsDiscarded:count 0
attr interpolationmode none
attr source constant1(messageDiscarded)
scalar small_network.switch1.ethg$o[1].channel utilization:last 0.057601200701884
attr source timeavg(channelBusy)
scalar small_network.switch1.ethg$o[1].channel packets:count 100002
attr interpolationmode none
attr source constant1(messageSent)
scalar small_network.switch1.ethg$o[1].channel packetBytes:sum 7200144
attr interpolationmode none
attr source packetBytes(messageSent)
attr unit B
scalar small_network.switch1.ethg$o[1].channel throughput:last 57601233.880154
attr source sumPerDuration(packetBits(messageSent))
attr unit bps
scalar small_network.switch1.ethg$o[2].channel packetsDiscarded:count 0
attr interpolationmode none
attr source constant1(messageDiscarded)
scalar small_network.switch1.ethg$o[2].channel utilization:last 0.028795272275464
attr source timeavg(channelBusy)
scalar small_network.switch1.ethg$o[2].channel packets:count 49991
attr interpolationmode none
attr source constant1(messageSent)
scalar small_network.switch1.ethg$o[2].channel packetBytes:sum 3599352
attr interpolationmode none
attr source packetBytes(messageSent)
attr unit B
scalar small_network.switch1.ethg$o[2].channel throughput:last 28795288.861836
attr source sumPerDuration(packetBits(messageSent))
attr unit bps
scalar small_network.node3.ethg$o.channel packetsDiscarded:count 0
attr interpolationmode none
attr source constant1(messageDiscarded)
scalar small_network.node3.ethg$o.channel utilization:last 0.055358000961076
attr source timeavg(channelBusy)
scalar small_network.node3.ethg$o.channel packets:count 1
attr interpolationmode none
attr source constant1(messageSent)
scalar small_network.node3.ethg$o.channel packetBytes:sum 72
attr interpolationmode none
attr source packetBytes(messageSent)
attr unit B
scalar small_network.node3.ethg$o.channel throughput:last 58602095.838844
attr source sumPerDuration(packetBits(messageSent))
attr unit bps
scalar small_network.node1.phy[0].shaper.queue[0] dropped:sum 0
attr source dropped
attr title "Dropped frames, sum"
attr unit packets
scalar small_network.node1.phy[0].shaper.queue[0] rxPk:count 100001
attr source rxPk
attr title "Received Packets, count"
attr unit packets
scalar small_network.node1.phy[0].shaper.queue[0] rxBytes:sum(packetBytes) 6400064
attr interpolationmode none
attr source rxPk
attr title "Received Bytes, sum(packetBytes)"
attr unit B
statistic small_network.node1.phy[0].shaper.queue[0] rxBytes:histogram(packetBytes)
field count 100001
field mean 64
field stddev 0
field min 64
field max 64
field sum 6400064
field sqrsum 409604096
attr interpolationmode none
attr source rxPk
attr title "Received Bytes, histogram(packetBytes)"
attr unit B
bin	-inf	0
bin	63	0
bin	64	100001
bin	65	0
statistic small_network.node1.phy[0].shaper.queue[0] rxLatency:stats
field count 100001
field mean 0
field stddev 0
field min 0
field max 0
field sum 0
field sqrsum 0
attr interpolationmode none
attr source messageAge(rxPk)
attr title "End-to-end latency (received), stats"
attr unit s
statistic small_network.node1.phy[0].shaper.queue[0] rxLatency:histogram
field count 100001
field mean 0
field stddev 0
field min 0
field max 0
field sum 0
field sqrsum 0
attr interpolationmode none
attr source messageAge(rxPk)
attr title "End-to-end latency (received), histogram"
attr unit s
bin	-inf	0
bin	-0.5	0
bin	-0.48	0
bin	-0.46	0
bin	-0.44	0
bin	-0.42	0
bin	-0.4	0
bin	-0.38	0
bin	-0.36	0
bin	-0.34	0
bin	-0.32	0
bin	-0.3	0
bin	-0.28	0
bin	-0.26	0
bin	-0.24	0
bin	-0.22	0
bin	-0.2	0
bin	-0.18	0
bin	-0.16	0
bin	-0.14	0
bin	-0.12	0
bin	-0.1	0
bin	-0.08	0
bin	-0.06	0
bin	-0.04	0
bin	-0.02	0
bin	0	100001
bin	0.02	0
bin	0.04	0
bin	0.06	0
bin	0.08	0
bin	0.1	0
bin	0.12	0
bin	0.14	0
bin	0.16	0
bin	0.18	0
bin	0.2	0
bin	0.22	0
bin	0.24	0
bin	0.26	0
bin	0.28	0
bin	0.3	0
bin	0.32	0
bin	0.34	0
bin	0.36	0
bin	0.38	0
bin	0.4	0
bin	0.42	0
bin	0.44	0
bin	0.46	0
bin	0.48	0
bin	0.5	0
scalar small_network.node1.phy[0].shaper.queue[0] txPk:count 0
attr source txPk
attr title "Transmitted Packets, count"
attr unit packets
scalar small_network.node1.phy[0].shaper.queue[0] txBytes:sum(packetBytes) 0
attr interpolationmode none
attr source txPk
attr title "Transmitted Bytes, sum(packetBytes)"
attr unit B
statistic small_network.node1.phy[0].shaper.queue[0] txBytes:histogram(packetBytes)
field count 0
field mean -nan
field stddev -nan
field min -nan
field max -nan
field sum 0
field sqrsum 0
attr interpolationmode none
attr source txPk
attr title "Transmitted Bytes, histogram(packetBytes)"
attr unit B
bin	-inf	0
bin	0	0
bin	1	0
statistic small_network.node1.phy[0].shaper.queue[0] txLatency:stats
field count 0
field mean -nan
field stddev -nan
field min -nan
field max -nan
field sum 0
field sqrsum 0
attr interpolationmode none
attr source messageAge(txPk)
attr title "End-to-end latency (transmitted), stats"
attr unit s
statistic small_network.node1.phy[0].shaper.queue[0] txLatency:histogram
field count 0
field mean -nan
field stddev -nan
field min -nan
field max -nan
field sum 0
field sqrsum 0
attr interpolationmode none
attr source messageAge(txPk)
attr title "End-to-end latency (transmitted), histogram"
attr unit s
bin	-inf	0
bin	0	0
bin	1	0
scalar small_network.node1.phy[0].shaper.queue[1] dropped:sum 0
attr source dropped
attr title "Dropped frames, sum"
attr unit packets
scalar small_network.node1.phy[0].shaper.queue[1] rxPk:count 0
attr source rxPk
attr title "Received Packets, count"
attr unit packets
scalar small_network.node1.phy[0].shaper.queue[1] rxBytes:sum(packetBytes) 0
attr interpolationmode none
attr source rxPk
attr title "Received Bytes, sum(packetBytes)"
attr unit B
statistic small_network.node1.phy[0].shaper.queue[1] rxBytes:histogram(packetBytes)
field count 0
field mean -nan
field stddev -nan
field min -nan
field max -nan
field sum 0
field sqrsum 0
attr interpolationmode none
attr source rxPk
attr title "Received Bytes, histogram(packetBytes)"
attr unit B
bin	-inf	0
bin	0	0
bin	1	0
statistic small_network.node1.phy[0].shaper.queue[1] rxLatency:stats
field count 0
field mean -nan
field stddev -nan
field min -nan
field max -nan
field sum 0
field sqrsum 0
attr interpolationmode none
attr source messageAge(rxPk)
attr title "End-to-end latency (received), stats"
attr unit s
statistic small_network.node1.phy[0].shaper.queue[1] rxLatency:histogram
field count 0
field mean -nan
field stddev -nan
field min -nan
field max -nan
field sum 0
field sqrsum 0
attr interpolationmode none
attr source messageAge(rxPk)
attr title "End-to-end latency (received), histogram"
attr unit s
bin	-inf	0
bin	0	0
bin	1	0
scalar small_network.node1.phy[0].shaper.queue[1] txPk:count 0
attr source txPk
attr title "Transmitted Packets, count"
attr unit packets
scalar small_network.node1.phy[0].shaper.queue[1] txBytes:sum(packetBytes) 0
attr interpolationmode none
attr source txPk
attr title "Transmitted Bytes, sum(packetBytes)"
attr unit B
statistic small_network.node1.phy[0].shaper.queue[1] txBytes:histogram(packetBytes)
field count 0
field mean -nan
field stddev -nan
field min -nan
field max -nan
field sum 0
field sqrsum 0
attr interpolationmode none
attr source txPk
attr title "Transmitted Bytes, histogram(packetBytes)"
attr unit B
bin	-inf	0
bin	0	0
bin	1	0
statistic small_network.node1.phy[0].shaper.queue[1] txLatency:stats
field count 0
field mean -nan
field stddev -nan
field min -nan
field max -nan
field sum 0
field sqrsum 0
attr interpolationmode none
attr source messageAge(txPk)
attr title "End-to-end latency (transmitted), stats"
attr unit s
statistic small_network.node1.phy[0].shaper.queue[1] txLatency:histogram
field count 0
field mean -nan
field stddev -nan
field min -nan
field max -nan
field sum 0
field sqrsum 0
attr interpolationmode none
attr source messageAge(txPk)
attr title "End-to-end latency (transmitted), histogram"
attr unit s
bin	-inf	0
bin	0	0
bin	1	0
scalar small_network.node1.phy[0].shaper.queue[2] dropped:sum 0
attr source dropped
attr title "Dropped frames, sum"
attr unit packets
scalar small_network.node1.phy[0].shaper.queue[2] rxPk:count 0
attr source rxPk
attr title "Received Packets, count"
attr unit packets
scalar small_network.node1.phy[0].shaper.queue[2] rxBytes:sum(packetBytes) 0
attr interpolationmode none
attr source rxPk
attr title "Received Bytes, sum(packetBytes)"
attr unit B
statistic small_network.node1.phy[0].shaper.queue[2] rxBytes:histogram(packetBytes)
field count 0
field mean -nan
field stddev -nan
field min -nan
field max -nan
field sum 0
field sqrsum 0
attr interpolationmode none
attr source rxPk
attr title "Received Bytes, histogram(packetBytes)"
attr unit B
bin	-inf	0
bin	0	0
bin	1	0
statistic small_network.node1.phy[0].shaper.queue[2] rxLatency:stats
field count 0
field mean -nan
field stddev -nan
field min -nan
field max -nan
field sum 0
field sqrsum 0
attr interpolationmode none
attr source messageAge(rxPk)
attr title "End-to-end latency (received), stats"
attr unit s
statistic small_network.node1.phy[0].shaper.queue[2] rxLatency:histogram
field count 0
field mean -nan
field stddev -nan
field min -nan
field max -nan
field sum 0
field sqrsum 0
attr interpolationmode none
attr source messageAge(rxPk)
attr title "End-to-end latency (received), histogram"
attr unit s
bin	-inf	0
bin	0	0
bin	1	0
scalar small_network.node1.phy[0].shaper.queue[2] txPk:count 0
attr source txPk
attr title "Transmitted Packets, count"
attr unit packets
scalar small_network.node1.phy[0].shaper.queue[2] txBytes:sum(packetBytes) 0
attr interpolationmode none
attr source txPk
attr title "Transmitted Bytes, sum(packetBytes)"
attr unit B
statistic small_network.node1.phy[0].shaper.queue[2] txBytes:histogram(packetBytes)
field count 0
field mean -nan
field stddev -nan
field min -nan
field max -nan
field sum 0
field sqrsum 0
attr interpolationmode none
attr source txPk
attr title "Transmitted Bytes, histogram(packetBytes)"
attr unit B
bin	-inf	0
bin	0	0
bin	1	0
statistic small_network.node1.phy[0].shaper.queue[2] txLatency:stats
field count 0
field mean -nan
field stddev -nan
field min -nan
field max -nan
field sum 0
field sqrsum 0
attr interpolationmode none
attr source messageAge(txPk)
attr title "End-to-end latency (transmitted), stats"
attr unit s
statistic small_network.node1.phy[0].shaper.queue[2] txLatency:histogram
field count 0
field mean -nan
field stddev -nan
field min -nan
field max -nan
field sum 0
field sqrsum 0
attr interpolationmode none
attr source messageAge(txPk)
attr title "End-to-end latency (transmitted), histogram"
attr unit s
bin	-inf	0
bin	0	0
bin	1	0
scalar small_network.node1.phy[0].shaper.queue[3] dropped:sum 0
attr source dropped
attr title "Dropped frames, sum"
attr unit packets
scalar small_network.node1.phy[0].shaper.queue[3] rxPk:count 0
attr source rxPk
attr title "Received Packets, count"
attr unit packets
scalar small_network.node1.phy[0].shaper.queue[3] rxBytes:sum(packetBytes) 0
attr interpolationmode none
attr source rxPk
attr title "Received Bytes, sum(packetBytes)"
attr unit B
statistic small_network.node1.phy[0].shaper.queue[3] rxBytes:histogram(packetBytes)
field count 0
field mean -nan
field stddev -nan
field min -nan
field max -nan
field sum 0
field sqrsum 0
attr interpolationmode none
attr source rxPk
attr title "Received Bytes, histogram(packetBytes)"
attr unit B
bin	-inf	0
bin	0	0
bin	1	0
statistic small_network.node1.phy[0].shaper.queue[3] rxLatency:stats
field count 0
field mean -nan
field stddev -nan
field min -nan
field max -nan
field sum 0
field sqrsum 0
attr interpolationmode none
attr source messageAge(rxPk)
attr title "End-to-end latency (received), stats"
attr unit s
statistic small_network.node1.phy[0].shaper.queue[3] rxLatency:histogram
field count 0
field mean -nan
field stddev -nan
field min -nan
field max -nan
field sum 0
field sqrsum 0
attr interpolationmode none
attr source messageAge(rxPk)
attr title "End-to-end latency (received), histogram"
attr unit s
bin	-inf	0
bin	0	0
bin	1	0
scalar small_network.node1.phy[0].shaper.queue[3] txPk:count 0
attr source txPk
attr title "Transmitted Packets, count"
attr unit packets
scalar small_network.node1.phy[0].shaper.queue[3] txBytes:sum(packetBytes) 0
attr interpolationmode none
attr source txPk
attr title "Transmitted Bytes, sum(packetBytes)"
attr unit B
statistic small_network.node1.phy[0].shaper.queue[3] txBytes:histogram(packetBytes)
field count 0
field mean -nan
field stddev -nan
field min -nan
field max -nan
field sum 0
field sqrsum 0
attr interpolationmode none
attr source txPk
attr title "Transmitted Bytes, histogram(packetBytes)"
attr unit B
bin	-inf	0
bin	0	0
bin	1	0
statistic small_network.node1.phy[0].shaper.queue[3] txLatency:stats
field count 0
field mean -nan
field stddev -nan
field min -nan
field max -nan
field sum 0
field sqrsum 0
attr interpolationmode none
attr source messageAge(txPk)
attr title "End-to-end latency (transmitted), stats"
attr unit s
statistic small_network.node1.phy[0].shaper.queue[3] txLatency:histogram
field count 0
field mean -nan
field stddev -nan
field min -nan
field max -nan
field sum 0
field sqrsum 0
attr interpolationmode none
attr source messageAge(txPk)
attr title "End-to-end latency (transmitted), histogram"
attr unit s
bin	-inf	0
bin	0	0
bin	1	0
scalar small_network.node1.phy[0].shaper.queue[4] dropped:sum 0
attr source dropped
attr title "Dropped frames, sum"
attr unit packets
scalar small_network.node1.phy[0].shaper.queue[4] rxPk:count 0
attr source rxPk
attr title "Received Packets, count"
attr unit packets
scalar small_network.node1.phy[0].shaper.queue[4] rxBytes:sum(packetBytes) 0
attr interpolationmode none
attr source rxPk
attr title "Received Bytes, sum(packetBytes)"
attr unit B
statistic small_network.node1.phy[0].shaper.queue[4] rxBytes:histogram(packetBytes)
field count 0
field mean -nan
field stddev -nan
field min -nan
field max -nan
field sum 0
field sqrsum 0
attr interpolationmode none
attr source rxPk
attr title "Received Bytes, histogram(packetBytes)"
attr unit B
bin	-inf	0
bin	0	0
bin	1	0
statistic small_network.node1.phy[0].shaper.queue[4] rxLatency:stats
field count 0
field mean -nan
field stddev -nan
field min -nan
field max -nan
field sum 0
field sqrsum 0
attr interpolationmode none
attr source messageAge(rxPk)
attr title "End-to-end latency (received), stats"
attr unit s
statistic small_network.node1.phy[0].shaper.queue[4] rxLatency:histogram
field count 0
field mean -nan
field stddev -nan
field min -nan
field max -nan
field sum 0
field sqrsum 0
attr interpolationmode none
attr source messageAge(rxPk)
attr title "End-to-end latency (received), histogram"
attr unit s
bin	-inf	0
bin	0	0
bin	1	0
scalar small_network.node1.phy[0].shaper.queue[4] txPk:count 0
attr source txPk
attr title "Transmitted Packets, count"
attr unit packets
scalar small_network.node1.phy[0].shaper.queue[4] txBytes:sum(packetBytes) 0
attr interpolationmode none
attr source txPk
attr title "Transmitted Bytes, sum(packetBytes)"
attr unit B
statistic small_network.node1.phy[0].shaper.queue[4] txBytes:histogram(packetBytes)
field count 0
field mean -nan
field stddev -nan
field min -nan
field max -nan
field sum 0
field sqrsum 0
attr interpolationmode none
attr source txPk
attr title "Transmitted Bytes, histogram(packetBytes)"
attr unit B
bin	-inf	0
bin	0	0
bin	1	0
statistic small_network.node1.phy[0].shaper.queue[4] txLatency:stats
field count 0
field mean -nan
field stddev -nan
field min -nan
field max -nan
field sum 0
field sqrsum 0
attr interpolationmode none
attr source messageAge(txPk)
attr title "End-to-end latency (transmitted), stats"
attr unit s
statistic small_network.node1.phy[0].shaper.queue[4] txLatency:histogram
field count 0
field mean -nan
field stddev -nan
field min -nan
field max -nan
field sum 0
field sqrsum 0
attr interpolationmode none
attr source messageAge(txPk)
attr title "End-to-end latency (transmitted), histogram"
attr unit s
bin	-inf	0
bin	0	0
bin	1	0
scalar small_network.node1.phy[0].shaper.queue[5] dropped:sum 0
attr source dropped
attr title "Dropped frames, sum"
attr unit packets
scalar small_network.node1.phy[0].shaper.queue[5] rxPk:count 10001
attr source rxPk
attr title "Received Packets, count"
attr unit packets
scalar small_network.node1.phy[0].shaper.queue[5] rxBytes:sum(packetBytes) 640064
attr interpolationmode none
attr source rxPk
attr title "Received Bytes, sum(packetBytes)"
attr unit B
statistic small_network.node1.phy[0].shaper.queue[5] rxBytes:histogram(packetBytes)
field count 10001
field mean 64
field stddev 0
field min 64
field max 64
field sum 640064
field sqrsum 40964096
attr interpolationmode none
attr source rxPk
attr title "Received Bytes, histogram(packetBytes)"
attr unit B
bin	-inf	0
bin	63	0
bin	64	10001
bin	65	0
statistic small_network.node1.phy[0].shaper.queue[5] rxLatency:stats
field count 10001
field mean 0
field stddev 0
field min 0
field max 0
field sum 0
field sqrsum 0
attr interpolationmode none
attr source messageAge(rxPk)
attr title "End-to-end latency (received), stats"
attr unit s
statistic small_network.node1.phy[0].shaper.queue[5] rxLatency:histogram
field count 10001
field mean 0
field stddev 0
field min 0
field max 0
field sum 0
field sqrsum 0
attr interpolationmode none
attr source messageAge(rxPk)
attr title "End-to-end latency (received), histogram"
attr unit s
bin	-inf	0
bin	-0.5	0
bin	-0.48	0
bin	-0.46	0
bin	-0.44	0
bin	-0.42	0
bin	-0.4	0
bin	-0.38	0
bin	-0.36	0
bin	-0.34	0
bin	-0.32	0
bin	-0.3	0
bin	-0.28	0
bin	-0.26	0
bin	-0.24	0
bin	-0.22	0
bin	-0.2	0
bin	-0.18	0
bin	-0.16	0
bin	-0.14	0
bin	-0.12	0
bin	-0.1	0
bin	-0.08	0
bin	-0.06	0
bin	-0.04	0
bin	-0.02	0
bin	0	10001
bin	0.02	0
bin	0.04	0
bin	0.06	0
bin	0.08	0
bin	0.1	0
bin	0.12	0
bin	0.14	0
bin	0.16	0
bin	0.18	0
bin	0.2	0
bin	0.22	0
bin	0.24	0
bin	0.26	0
bin	0.28	0
bin	0.3	0
bin	0.32	0
bin	0.34	0
bin	0.36	0
bin	0.38	0
bin	0.4	0
bin	0.42	0
bin	0.44	0
bin	0.46	0
bin	0.48	0
bin	0.5	0
scalar small_network.node1.phy[0].shaper.queue[5] txPk:count 0
attr source txPk
attr title "Transmitted Packets, count"
attr unit packets
scalar small_network.node1.phy[0].shaper.queue[5] txBytes:sum(packetBytes) 0
attr interpolationmode none
attr source txPk
attr title "Transmitted Bytes, sum(packetBytes)"
attr unit B
statistic small_network.node1.phy[0].shaper.queue[5] txBytes:histogram(packetBytes)
field count 0
field mean -nan
field stddev -nan
field min -nan
field max -nan
field sum 0
field sqrsum 0
attr interpolationmode none
attr source txPk
attr title "Transmitted Bytes, histogram(packetBytes)"
attr unit B
bin	-inf	0
bin	0	0
bin	1	0
statistic small_network.node1.phy[0].shaper.queue[5] txLatency:stats
field count 0
field mean -nan
field stddev -nan
field min -nan
field max -nan
field sum 0
field sqrsum 0
attr interpolationmode none
attr source messageAge(txPk)
attr title "End-to-end latency (transmitted), stats"
attr unit s
statistic small_network.node1.phy[0].shaper.queue[5] txLatency:histogram
field count 0
field mean -nan
field stddev -nan
field min -nan
field max -nan
field sum 0
field sqrsum 0
attr interpolationmode none
attr source messageAge(txPk)
attr title "End-to-end latency (transmitted), histogram"
attr unit s
bin	-inf	0
bin	0	0
bin	1	0
scalar small_network.node1.phy[0].shaper.queue[6] dropped:sum 0
attr source dropped
attr title "Dropped frames, sum"
attr unit packets
scalar small_network.node1.phy[0].shaper.queue[6] rxPk:count 0
attr source rxPk
attr title "Received Packets, count"
attr unit packets
scalar small_network.node1.phy[0].shaper.queue[6] rxBytes:sum(packetBytes) 0
attr interpolationmode none
attr source rxPk
attr title "Received Bytes, sum(packetBytes)"
attr unit B
statistic small_network.node1.phy[0].shaper.queue[6] rxBytes:histogram(packetBytes)
field count 0
field mean -nan
field stddev -nan
field min -nan
field max -nan
field sum 0
field sqrsum 0
attr interpolationmode none
attr source rxPk
attr title "Received Bytes, histogram(packetBytes)"
attr unit B
bin	-inf	0
bin	0	0
bin	1	0
statistic small_network.node1.phy[0].shaper.queue[6] rxLatency:stats
field count 0
field mean -nan
field stddev -nan
field min -nan
field max -nan
field sum 0
field sqrsum 0
attr interpolationmode none
attr source messageAge(rxPk)
attr title "End-to-end latency (received), stats"
attr unit s
statistic small_network.node1.phy[0].shaper.queue[6] rxLatency:histogram
field count 0
field mean -nan
field stddev -nan
field min -nan
field max -nan
field sum 0
field sqrsum 0
attr interpolationmode none
attr source messageAge(rxPk)
attr title "End-to-end latency (received), histogram"
attr unit s
bin	-inf	0
bin	0	0
bin	1	0
scalar small_network.node1.phy[0].shaper.queue[6] txPk:count 0
attr source txPk
attr title "Transmitted Packets, count"
attr unit packets
scalar small_network.node1.phy[0].shaper.queue[6] txBytes:sum(packetBytes) 0
attr interpolationmode none
attr source txPk
attr title "Transmitted Bytes, sum(packetBytes)"
attr unit B
statistic small_network.node1.phy[0].shaper.queue[6] txBytes:histogram(packetBytes)
field count 0
field mean -nan
field stddev -nan
field min -nan
field max -nan
field sum 0
field sqrsum 0
attr interpolationmode none
attr source txPk
attr title "Transmitted Bytes, histogram(packetBytes)"
attr unit B
bin	-inf	0
bin	0	0
bin	1	0
statistic small_network.node1.phy[0].shaper.queue[6] txLatency:stats
field count 0
field mean -nan
field stddev -nan
field min -nan
field max -nan
field sum 0
field sqrsum 0
attr interpolationmode none
attr source messageAge(txPk)
attr title "End-to-end latency (transmitted), stats"
attr unit s
statistic small_network.node1.phy[0].shaper.queue[6] txLatency:histogram
field count 0
field mean -nan
field stddev -nan
field min -nan
field max -nan
field sum 0
field sqrsum 0
attr interpolationmode none
attr source messageAge(txPk)
attr title "End-to-end latency (transmitted), histogram"
attr unit s
bin	-inf	0
bin	0	0
bin	1	0
scalar small_network.node1.phy[0].shaper.queue[7] dropped:sum 0
attr source dropped
attr title "Dropped frames, sum"
attr unit packets
scalar small_network.node1.phy[0].shaper.queue[7] rxPk:count 40001
attr source rxPk
attr title "Received Packets, count"
attr unit packets
scalar small_network.node1.phy[0].shaper.queue[7] rxBytes:sum(packetBytes) 2560064
attr interpolationmode none
attr source rxPk
attr title "Received Bytes, sum(packetBytes)"
attr unit B
statistic small_network.node1.phy[0].shaper.queue[7] rxBytes:histogram(packetBytes)
field count 40001
field mean 64
field stddev 0
field min 64
field max 64
field sum 2560064
field sqrsum 163844096
attr interpolationmode none
attr source rxPk
attr title "Received Bytes, histogram(packetBytes)"
attr unit B
bin	-inf	0
bin	63	0
bin	64	40001
bin	65	0
statistic small_network.node1.phy[0].shaper.queue[7] rxLatency:stats
field count 40001
field mean 0
field stddev 0
field min 0
field max 0
field sum 0
field sqrsum 0
attr interpolationmode none
attr source messageAge(rxPk)
attr title "End-to-end latency (received), stats"
attr unit s
statistic small_network.node1.phy[0].shaper.queue[7] rxLatency:histogram
field count 40001
field mean 0
field stddev 0
field min 0
field max 0
field sum 0
field sqrsum 0
attr interpolationmode none
attr source messageAge(rxPk)
attr title "End-to-end latency (received), histogram"
attr unit s
bin	-inf	0
bin	-0.5	0
bin	-0.48	0
bin	-0.46	0
bin	-0.44	0
bin	-0.42	0
bin	-0.4	0
bin	-0.38	0
bin	-0.36	0
bin	-0.34	0
bin	-0.32	0
bin	-0.3	0
bin	-0.28	0
bin	-0.26	0
bin	-0.24	0
bin	-0.22	0
bin	-0.2	0
bin	-0.18	0
bin	-0.16	0
bin	-0.14	0
bin	-0.12	0
bin	-0.1	0
bin	-0.08	0
bin	-0.06	0
bin	-0.04	0
bin	-0.02	0
bin	0	40001
bin	0.02	0
bin	0.04	0
bin	0.06	0
bin	0.08	0
bin	0.1	0
bin	0.12	0
bin	0.14	0
bin	0.16	0
bin	0.18	0
bin	0.2	0
bin	0.22	0
bin	0.24	0
bin	0.26	0
bin	0.28	0
bin	0.3	0
bin	0.32	0
bin	0.34	0
bin	0.36	0
bin	0.38	0
bin	0.4	0
bin	0.42	0
bin	0.44	0
bin	0.46	0
bin	0.48	0
bin	0.5	0
scalar small_network.node1.phy[0].shaper.queue[7] txPk:count 0
attr source txPk
attr title "Transmitted Packets, count"
attr unit packets
scalar small_network.node1.phy[0].shaper.queue[7] txBytes:sum(packetBytes) 0
attr interpolationmode none
attr source txPk
attr title "Transmitted Bytes, sum(packetBytes)"
attr unit B
statistic small_network.node1.phy[0].shaper.queue[7] txBytes:histogram(packetBytes)
field count 0
field mean -nan
field stddev -nan
field min -nan
field max -nan
field sum 0
field sqrsum 0
attr interpolationmode none
attr source txPk
attr title "Transmitted Bytes, histogram(packetBytes)"
attr unit B
bin	-inf	0
bin	0	0
bin	1	0
statistic small_network.node1.phy[0].shaper.queue[7] txLatency:stats
field count 0
field mean -nan
field stddev -nan
field min -nan
field max -nan
field sum 0
field sqrsum 0
attr interpolationmode none
attr source messageAge(txPk)
attr title "End-to-end latency (transmitted), stats"
attr unit s
statistic small_network.node1.phy[0].shaper.queue[7] txLatency:histogram
field count 0
field mean -nan
field stddev -nan
field min -nan
field max -nan
field sum 0
field sqrsum 0
attr interpolationmode none
attr source messageAge(txPk)
attr title "End-to-end latency (transmitted), histogram"
attr unit s
bin	-inf	0
bin	0	0
bin	1	0
scalar small_network.node1.phy[0].shaper.transmissionSelection "qPcp0 frames/sec" 100001
scalar small_network.node1.phy[0].shaper.transmissionSelection "qPcp0 bits/sec" 51200512
scalar small_network.node1.phy[0].shaper.transmissionSelection "qPcp1 frames/sec" 0
scalar small_network.node1.phy[0].shaper.transmissionSelection "qPcp1 bits/sec" 0
scalar small_network.node1.phy[0].shaper.transmissionSelection "qPcp2 frames/sec" 0
scalar small_network.node1.phy[0].shaper.transmissionSelection "qPcp2 bits/sec" 0
scalar small_network.node1.phy[0].shaper.transmissionSelection "qPcp3 frames/sec" 0
scalar small_network.node1.phy[0].shaper.transmissionSelection "qPcp3 bits/sec" 0
scalar small_network.node1.phy[0].shaper.transmissionSelection "qPcp4 frames/sec" 0
scalar small_network.node1.phy[0].shaper.transmissionSelection "qPcp4 bits/sec" 0
scalar small_network.node1.phy[0].shaper.transmissionSelection "qPcp5 frames/sec" 10000
scalar small_network.node1.phy[0].shaper.transmissionSelection "qPcp5 bits/sec" 5120000
scalar small_network.node1.phy[0].shaper.transmissionSelection "qPcp6 frames/sec" 0
scalar small_network.node1.phy[0].shaper.transmissionSelection "qPcp6 bits/sec" 0
scalar small_network.node1.phy[0].shaper.transmissionSelection "qPcp7 frames/sec" 40000
scalar small_network.node1.phy[0].shaper.transmissionSelection "qPcp7 bits/sec" 20480000
statistic small_network.node1.phy[0].shaper.transmissionSelection qPcp7Latency:stats
field count 40001
field mean 3.3599160021007e-07
field stddev 3.3600419986864e-07
field min 0
field max 6.72e-07
field sum 0.013440000000003
field sqrsum 9.0316799999989e-09
attr interpolationmode none
attr title "End-to-end latency, stats"
attr unit s
statistic small_network.node1.phy[0].shaper.transmissionSelection qPcp7Latency:histogram
field count 40001
field mean 3.3599160021007e-07
field stddev 3.3600419986864e-07
field min 0
field max 6.72e-07
field sum 0.013440000000003
field sqrsum 9.0316799999989e-09
attr interpolationmode none
attr title "End-to-end latency, histogram"
attr unit s
bin	-inf	0
bin	0	20001
bin	1e-08	0
bin	2e-08	0
bin	3e-08	0
bin	4e-08	0
bin	5e-08	0
bin	6e-08	0
bin	7e-08	0
bin	8e-08	0
bin	9e-08	0
bin	1e-07	0
bin	1.1e-07	0
bin	1.2e-07	0
bin	1.3e-07	0
bin	1.4e-07	0
bin	1.5e-07	0
bin	1.6e-07	0
bin	1.7e-07	0
bin	1.8e-07	0
bin	1.9e-07	0
bin	2e-07	0
bin	2.1e-07	0
bin	2.2e-07	0
bin	2.3e-07	0
bin	2.4e-07	0
bin	2.5e-07	0
bin	2.6e-07	0
bin	2.7e-07	0
bin	2.8e-07	0
bin	2.9e-07	0
bin	3e-07	0
bin	3.1e-07	0
bin	3.2e-07	0
bin	3.3e-07	0
bin	3.4e-07	0
bin	3.5e-07	0
bin	3.6e-07	0
bin	3.7e-07	0
bin	3.8e-07	0
bin	3.9e-07	0
bin	4e-07	0
bin	4.1e-07	0
bin	4.2e-07	0
bin	4.3e-07	0
bin	4.4e-07	0
bin	4.5e-07	0
bin	4.6e-07	0
bin	4.7e-07	0
bin	4.8e-07	0
bin	4.9e-07	0
bin	5e-07	0
bin	5.1e-07	0
bin	5.2e-07	0
bin	5.3e-07	0
bin	5.4e-07	0
bin	5.5e-07	0
bin	5.6e-07	0
bin	5.7e-07	0
bin	5.8e-07	0
bin	5.9e-07	0
bin	6e-07	0
bin	6.1e-07	0
bin	6.2e-07	0
bin	6.3e-07	0
bin	6.4e-07	0
bin	6.5e-07	0
bin	6.6e-07	0
bin	6.7e-07	20000
bin	6.8e-07	0
bin	6.9e-07	0
bin	7e-07	0
bin	7.1e-07	0
bin	7.2e-07	0
bin	7.3e-07	0
bin	7.4e-07	0
bin	7.5e-07	0
bin	7.6e-07	0
bin	7.7e-07	0
bin	7.8e-07	0
bin	7.9e-07	0
bin	8e-07	0
bin	8.1e-07	0
bin	8.2e-07	0
bin	8.3e-07	0
bin	8.4e-07	0
scalar small_network.node1.phy[0].shaper.transmissionSelection qPcp7Pk:count 40001
attr title "Received Packets, count"
attr unit packets
scalar small_network.node1.phy[0].shaper.transmissionSelection qPcp7Bytes:sum(packetBytes) 2560000
attr interpolationmode none
attr title "Received Bytes, sum(packetBytes)"
attr unit B
statistic small_network.node1.phy[0].shaper.transmissionSelection qPcp7Bytes:histogram(packetBytes)
field count 40001
field mean 63.998400039999
field stddev 0.31999600007493
field min 0
field max 64
field sum 2560000
field sqrsum 163840000
attr interpolationmode none
attr title "Received Bytes, histogram(packetBytes)"
attr unit B
bin	-inf	0
bin	0	1
bin	1	0
bin	2	0
bin	3	0
bin	4	0
bin	5	0
bin	6	0
bin	7	0
bin	8	0
bin	9	0
bin	10	0
bin	11	0
bin	12	0
bin	13	0
bin	14	0
bin	15	0
bin	16	0
bin	17	0
bin	18	0
bin	19	0
bin	20	0
bin	21	0
bin	22	0
bin	23	0
bin	24	0
bin	25	0
bin	26	0
bin	27	0
bin	28	0
bin	29	0
bin	30	0
bin	31	0
bin	32	0
bin	33	0
bin	34	0
bin	35	0
bin	36	0
bin	37	0
bin	38	0
bin	39	0
bin	40	0
bin	41	0
bin	42	0
bin	43	0
bin	44	0
bin	45	0
bin	46	0
bin	47	0
bin	48	0
bin	49	0
bin	50	0
bin	51	0
bin	52	0
bin	53	0
bin	54	0
bin	55	0
bin	56	0
bin	57	0
bin	58	0
bin	59	0
bin	60	0
bin	61	0
bin	62	0
bin	63	0
bin	64	40000
bin	65	0
bin	66	0
bin	67	0
bin	68	0
bin	69	0
bin	70	0
bin	71	0
bin	72	0
bin	73	0
bin	74	0
bin	75	0
bin	76	0
bin	77	0
bin	78	0
bin	79	0
bin	80	0
statistic small_network.node1.phy[0].shaper.transmissionSelection qPcp6Latency:stats
field count 1
field mean 0
field stddev -nan
field min 0
field max 0
field sum 0
field sqrsum 0
attr interpolationmode none
attr title "End-to-end latency, stats"
attr unit s
statistic small_network.node1.phy[0].shaper.transmissionSelection qPcp6Latency:histogram
field count 1
field mean 0
field stddev -nan
field min 0
field max 0
field sum 0
field sqrsum 0
attr interpolationmode none
attr title "End-to-end latency, histogram"
attr unit s
bin	-inf	0
bin	-0.5	0
bin	-0.48	0
bin	-0.46	0
bin	-0.44	0
bin	-0.42	0
bin	-0.4	0
bin	-0.38	0
bin	-0.36	0
bin	-0.34	0
bin	-0.32	0
bin	-0.3	0
bin	-0.28	0
bin	-0.26	0
bin	-0.24	0
bin	-0.22	0
bin	-0.2	0
bin	-0.18	0
bin	-0.16	0
bin	-0.14	0
bin	-0.12	0
bin	-0.1	0
bin	-0.08	0
bin	-0.06	0
bin	-0.04	0
bin	-0.02	0
bin	0	1
bin	0.02	0
bin	0.04	0
bin	0.06	0
bin	0.08	0
bin	0.1	0
bin	0.12	0
bin	0.14	0
bin	0.16	0
bin	0.18	0
bin	0.2	0
bin	0.22	0
bin	0.24	0
bin	0.26	0
bin	0.28	0
bin	0.3	0
bin	0.32	0
bin	0.34	0
bin	0.36	0
bin	0.38	0
bin	0.4	0
bin	0.42	0
bin	0.44	0
bin	0.46	0
bin	0.48	0
bin	0.5	0
scalar small_network.node1.phy[0].shaper.transmissionSelection qPcp6Pk:count 1
attr title "Received Packets, count"
attr unit packets
scalar small_network.node1.phy[0].shaper.transmissionSelection qPcp6Bytes:sum(packetBytes) 0
attr interpolationmode none
attr title "Received Bytes, sum(packetBytes)"
attr unit B
statistic small_network.node1.phy[0].shaper.transmissionSelection qPcp6Bytes:histogram(packetBytes)
field count 1
field mean 0
field stddev -nan
field min 0
field max 0
field sum 0
field sqrsum 0
attr interpolationmode none
attr title "Received Bytes, histogram(packetBytes)"
attr unit B
bin	-inf	0
bin	-0.5	0
bin	-0.48	0
bin	-0.46	0
bin	-0.44	0
bin	-0.42	0
bin	-0.4	0
bin	-0.38	0
bin	-0.36	0
bin	-0.34	0
bin	-0.32	0
bin	-0.3	0
bin	-0.28	0
bin	-0.26	0
bin	-0.24	0
bin	-0.22	0
bin	-0.2	0
bin	-0.18	0
bin	-0.16	0
bin	-0.14	0
bin	-0.12	0
bin	-0.1	0
bin	-0.08	0
bin	-0.06	0
bin	-0.04	0
bin	-0.02	0
bin	0	1
bin	0.02	0
bin	0.04	0
bin	0.06	0
bin	0.08	0
bin	0.1	0
bin	0.12	0
bin	0.14	0
bin	0.16	0
bin	0.18	0
bin	0.2	0
bin	0.22	0
bin	0.24	0
bin	0.26	0
bin	0.28	0
bin	0.3	0
bin	0.32	0
bin	0.34	0
bin	0.36	0
bin	0.38	0
bin	0.4	0
bin	0.42	0
bin	0.44	0
bin	0.46	0
bin	0.48	0
bin	0.5	0
statistic small_network.node1.phy[0].shaper.transmissionSelection qPcp5Latency:stats
field count 10001
field mean 1.3438656134389e-06
field stddev 1.3439328036216e-08
field min 0
field max 1.344e-06
field sum 0.013440000000002
field sqrsum 1.8063360000002e-08
attr interpolationmode none
attr title "End-to-end latency, stats"
attr unit s
statistic small_network.node1.phy[0].shaper.transmissionSelection qPcp5Latency:histogram
field count 10001
field mean 1.3438656134389e-06
field stddev 1.3439328036216e-08
field min 0
field max 1.344e-06
field sum 0.013440000000002
field sqrsum 1.8063360000002e-08
attr interpolationmode none
attr title "End-to-end latency, histogram"
attr unit s
bin	-inf	0
bin	0	1
bin	2e-08	0
bin	4e-08	0
bin	6e-08	0
bin	8e-08	0
bin	1e-07	0
bin	1.2e-07	0
bin	1.4e-07	0
bin	1.6e-07	0
bin	1.8e-07	0
bin	2e-07	0
bin	2.2e-07	0
bin	2.4e-07	0
bin	2.6e-07	0
bin	2.8e-07	0
bin	3e-07	0
bin	3.2e-07	0
bin	3.4e-07	0
bin	3.6e-07	0
bin	3.8e-07	0
bin	4e-07	0
bin	4.2e-07	0
bin	4.4e-07	0
bin	4.6e-07	0
bin	4.8e-07	0
bin	5e-07	0
bin	5.2e-07	0
bin	5.4e-07	0
bin	5.6e-07	0
bin	5.8e-07	0
bin	6e-07	0
bin	6.2e-07	0
bin	6.4e-07	0
bin	6.6e-07	0
bin	6.8e-07	0
bin	7e-07	0
bin	7.2e-07	0
bin	7.4e-07	0
bin	7.6e-07	0
bin	7.8e-07	0
bin	8e-07	0
bin	8.2e-07	0
bin	8.4e-07	0
bin	8.6e-07	0
bin	8.8e-07	0
bin	9e-07	0
bin	9.2e-07	0
bin	9.4e-07	0
bin	9.6e-07	0
bin	9.8e-07	0
bin	1e-06	0
bin	1.02e-06	0
bin	1.04e-06	0
bin	1.06e-06	0
bin	1.08e-06	0
bin	1.1e-06	0
bin	1.12e-06	0
bin	1.14e-06	0
bin	1.16e-06	0
bin	1.18e-06	0
bin	1.2e-06	0
bin	1.22e-06	0
bin	1.24e-06	0
bin	1.26e-06	0
bin	1.28e-06	0
bin	1.3e-06	0
bin	1.32e-06	0
bin	1.34e-06	10000
bin	1.36e-06	0
bin	1.38e-06	0
bin	1.4e-06	0
bin	1.42e-06	0
bin	1.44e-06	0
bin	1.46e-06	0
bin	1.48e-06	0
bin	1.5e-06	0
bin	1.52e-06	0
bin	1.54e-06	0
bin	1.56e-06	0
bin	1.58e-06	0
bin	1.6e-06	0
bin	1.62e-06	0
bin	1.64e-06	0
bin	1.66e-06	0
bin	1.68e-06	0
scalar small_network.node1.phy[0].shaper.transmissionSelection qPcp5Pk:count 10001
attr title "Received Packets, count"
attr unit packets
scalar small_network.node1.phy[0].shaper.transmissionSelection qPcp5Bytes:sum(packetBytes) 640000
attr interpolationmode none
attr title "Received Bytes, sum(packetBytes)"
attr unit B
statistic small_network.node1.phy[0].shaper.transmissionSelection qPcp5Bytes:histogram(packetBytes)
field count 10001
field mean 63.993600639936
field stddev 0.63996800240002
field min 0
field max 64
field sum 640000
field sqrsum 40960000
attr interpolationmode none
attr title "Received Bytes, histogram(packetBytes)"
attr unit B
bin	-inf	0
bin	0	1
bin	1	0
bin	2	0
bin	3	0
bin	4	0
bin	5	0
bin	6	0
bin	7	0
bin	8	0
bin	9	0
bin	10	0
bin	11	0
bin	12	0
bin	13	0
bin	14	0
bin	15	0
bin	16	0
bin	17	0
bin	18	0
bin	19	0
bin	20	0
bin	21	0
bin	22	0
bin	23	0
bin	24	0
bin	25	0
bin	26	0
bin	27	0
bin	28	0
bin	29	0
bin	30	0
bin	31	0
bin	32	0
bin	33	0
bin	34	0
bin	35	0
bin	36	0
bin	37	0
bin	38	0
bin	39	0
bin	40	0
bin	41	0
bin	42	0
bin	43	0
bin	44	0
bin	45	0
bin	46	0
bin	47	0
bin	48	0
bin	49	0
bin	50	0
bin	51	0
bin	52	0
bin	53	0
bin	54	0
bin	55	0
bin	56	0
bin	57	0
bin	58	0
bin	59	0
bin	60	0
bin	61	0
bin	62	0
bin	63	0
bin	64	10000
bin	65	0
bin	66	0
bin	67	0
bin	68	0
bin	69	0
bin	70	0
bin	71	0
bin	72	0
bin	73	0
bin	74	0
bin	75	0
bin	76	0
bin	77	0
bin	78	0
bin	79	0
bin	80	0
statistic small_network.node1.phy[0].shaper.transmissionSelection qPcp4Latency:stats
field count 1
field mean 0
field stddev -nan
field min 0
field max 0
field sum 0
field sqrsum 0
attr interpolationmode none
attr title "End-to-end latency, stats"
attr unit s
statistic small_network.node1.phy[0].shaper.transmissionSelection qPcp4Latency:histogram
field count 1
field mean 0
field stddev -nan
field min 0
field max 0
field sum 0
field sqrsum 0
attr interpolationmode none
attr title "End-to-end latency, histogram"
attr unit s
bin	-inf	0
bin	-0.5	0
bin	-0.48	0
bin	-0.46	0
bin	-0.44	0
bin	-0.42	0
bin	-0.4	0
bin	-0.38	0
bin	-0.36	0
bin	-0.34	0
bin	-0.32	0
bin	-0.3	0
bin	-0.28	0
bin	-0.26	0
bin	-0.24	0
bin	-0.22	0
bin	-0.2	0
bin	-0.18	0
bin	-0.16	0
bin	-0.14	0
bin	-0.12	0
bin	-0.1	0
bin	-0.08	0
bin	-0.06	0
bin	-0.04	0
bin	-0.02	0
bin	0	1
bin	0.02	0
bin	0.04	0
bin	0.06	0
bin	0.08	0
bin	0.1	0
bin	0.12	0
bin	0.14	0
bin	0.16	0
bin	0.18	0
bin	0.2	0
bin	0.22	0
bin	0.24	0
bin	0.26	0
bin	0.28	0
bin	0.3	0
bin	0.32	0
bin	0.34	0
bin	0.36	0
bin	0.38	0
bin	0.4	0
bin	0.42	0
bin	0.44	0
bin	0.46	0
bin	0.48	0
bin	0.5	0
scalar small_network.node1.phy[0].shaper.transmissionSelection qPcp4Pk:count 1
attr title "Received Packets, count"
attr unit packets
scalar small_network.node1.phy[0].shaper.transmissionSelection qPcp4Bytes:sum(packetBytes) 0
attr interpolationmode none
attr title "Received Bytes, sum(packetBytes)"
attr unit B
statistic small_network.node1.phy[0].shaper.transmissionSelection qPcp4Bytes:histogram(packetBytes)
field count 1
field mean 0
field stddev -nan
field min 0
field max 0
field sum 0
field sqrsum 0
attr interpolationmode none
attr title "Received Bytes, histogram(packetBytes)"
attr unit B
bin	-inf	0
bin	-0.5	0
bin	-0.48	0
bin	-0.46	0
bin	-0.44	0
bin	-0.42	0
bin	-0.4	0
bin	-0.38	0
bin	-0.36	0
bin	-0.34	0
bin	-0.32	0
bin	-0.3	0
bin	-0.28	0
bin	-0.26	0
bin	-0.24	0
bin	-0.22	0
bin	-0.2	0
bin	-0.18	0
bin	-0.16	0
bin	-0.14	0
bin	-0.12	0
bin	-0.1	0
bin	-0.08	0
bin	-0.06	0
bin	-0.04	0
bin	-0.02	0
bin	0	1
bin	0.02	0
bin	0.04	0
bin	0.06	0
bin	0.08	0
bin	0.1	0
bin	0.12	0
bin	0.14	0
bin	0.16	0
bin	0.18	0
bin	0.2	0
bin	0.22	0
bin	0.24	0
bin	0.26	0
bin	0.28	0
bin	0.3	0
bin	0.32	0
bin	0.34	0
bin	0.36	0
bin	0.38	0
bin	0.4	0
bin	0.42	0
bin	0.44	0
bin	0.46	0
bin	0.48	0
bin	0.5	0
statistic small_network.node1.phy[0].shaper.transmissionSelection qPcp3Latency:stats
field count 1
field mean 0
field stddev -nan
field min 0
field max 0
field sum 0
field sqrsum 0
attr interpolationmode none
attr title "End-to-end latency, stats"
attr unit s
statistic small_network.node1.phy[0].shaper.transmissionSelection qPcp3Latency:histogram
field count 1
field mean 0
field stddev -nan
field min 0
field max 0
field sum 0
field sqrsum 0
attr interpolationmode none
attr title "End-to-end latency, histogram"
attr unit s
bin	-inf	0
bin	-0.5	0
bin	-0.48	0
bin	-0.46	0
bin	-0.44	0
bin	-0.42	0
bin	-0.4	0
bin	-0.38	0
bin	-0.36	0
bin	-0.34	0
bin	-0.32	0
bin	-0.3	0
bin	-0.28	0
bin	-0.26	0
bin	-0.24	0
bin	-0.22	0
bin	-0.2	0
bin	-0.18	0
bin	-0.16	0
bin	-0.14	0
bin	-0.12	0
bin	-0.1	0
bin	-0.08	0
bin	-0.06	0
bin	-0.04	0
bin	-0.02	0
bin	0	1
bin	0.02	0
bin	0.04	0
bin	0.06	0
bin	0.08	0
bin	0.1	0
bin	0.12	0
bin	0.14	0
bin	0.16	0
bin	0.18	0
bin	0.2	0
bin	0.22	0
bin	0.24	0
bin	0.26	0
bin	0.28	0
bin	0.3	0
bin	0.32	0
bin	0.34	0
bin	0.36	0
bin	0.38	0
bin	0.4	0
bin	0.42	0
bin	0.44	0
bin	0.46	0
bin	0.48	0
bin	0.5	0
scalar small_network.node1.phy[0].shaper.transmissionSelection qPcp3Pk:count 1
attr title "Received Packets, count"
attr unit packets
scalar small_network.node1.phy[0].shaper.transmissionSelection qPcp3Bytes:sum(packetBytes) 0
attr interpolationmode none
attr title "Received Bytes, sum(packetBytes)"
attr unit B
statistic small_network.node1.phy[0].shaper.transmissionSelection qPcp3Bytes:histogram(packetBytes)
field count 1
field mean 0
field stddev -nan
field min 0
field max 0
field sum 0
field sqrsum 0
attr interpolationmode none
attr title "Received Bytes, histogram(packetBytes)"
attr unit B
bin	-inf	0
bin	-0.5	0
bin	-0.48	0
bin	-0.46	0
bin	-0.44	0
bin	-0.42	0
bin	-0.4	0
bin	-0.38	0
bin	-0.36	0
bin	-0.34	0
bin	-0.32	0
bin	-0.3	0
bin	-0.28	0
bin	-0.26	0
bin	-0.24	0
bin	-0.22	0
bin	-0.2	0
bin	-0.18	0
bin	-0.16	0
bin	-0.14	0
bin	-0.12	0
bin	-0.1	0
bin	-0.08	0
bin	-0.06	0
bin	-0.04	0
bin	-0.02	0
bin	0	1
bin	0.02	0
bin	0.04	0
bin	0.06	0
bin	0.08	0
bin	0.1	0
bin	0.12	0
bin	0.14	0
bin	0.16	0
bin	0.18	0
bin	0.2	0
bin	0.22	0
bin	0.24	0
bin	0.26	0
bin	0.28	0
bin	0.3	0
bin	0.32	0
bin	0.34	0
bin	0.36	0
bin	0.38	0
bin	0.4	0
bin	0.42	0
bin	0.44	0
bin	0.46	0
bin	0.48	0
bin	0.5	0
statistic small_network.node1.phy[0].shaper.transmissionSelection qPcp2Latency:stats
field count 1
field mean 0
field stddev -nan
field min 0
field max 0
field sum 0
field sqrsum 0
attr interpolationmode none
attr title "End-to-end latency, stats"
attr unit s
statistic small_network.node1.phy[0].shaper.transmissionSelection qPcp2Latency:histogram
field count 1
field mean 0
field stddev -nan
field min 0
field max 0
field sum 0
field sqrsum 0
attr interpolationmode none
attr title "End-to-end latency, histogram"
attr unit s
bin	-inf	0
bin	-0.5	0
bin	-0.48	0
bin	-0.46	0
bin	-0.44	0
bin	-0.42	0
bin	-0.4	0
bin	-0.38	0
bin	-0.36	0
bin	-0.34	0
bin	-0.32	0
bin	-0.3	0
bin	-0.28	0
bin	-0.26	0
bin	-0.24	0
bin	-0.22	0
bin	-0.2	0
bin	-0.18	0
bin	-0.16	0
bin	-0.14	0
bin	-0.12	0
bin	-0.1	0
bin	-0.08	0
bin	-0.06	0
bin	-0.04	0
bin	-0.02	0
bin	0	1
bin	0.02	0
bin	0.04	0
bin	0.06	0
bin	0.08	0
bin	0.1	0
bin	0.12	0
bin	0.14	0
bin	0.16	0
bin	0.18	0
bin	0.2	0
bin	0.22	0
bin	0.24	0
bin	0.26	0
bin	0.28	0
bin	0.3	0
bin	0.32	0
bin	0.34	0
bin	0.36	0
bin	0.38	0
bin	0.4	0
bin	0.42	0
bin	0.44	0
bin	0.46	0
bin	0.48	0
bin	0.5	0
scalar small_network.node1.phy[0].shaper.transmissionSelection qPcp2Pk:count 1
attr title "Received Packets, count"
attr unit packets
scalar small_network.node1.phy[0].shaper.transmissionSelection qPcp2Bytes:sum(packetBytes) 0
attr interpolationmode none
attr title "Received Bytes, sum(packetBytes)"
attr unit B
statistic small_network.node1.phy[0].shaper.transmissionSelection qPcp2Bytes:histogram(packetBytes)
field count 1
field mean 0
field stddev -nan
field min 0
field max 0
field sum 0
field sqrsum 0
attr interpolationmode none
attr title "Received Bytes, histogram(packetBytes)"
attr unit B
bin	-inf	0
bin	-0.5	0
bin	-0.48	0
bin	-0.46	0
bin	-0.44	0
bin	-0.42	0
bin	-0.4	0
bin	-0.38	0
bin	-0.36	0
bin	-0.34	0
bin	-0.32	0
bin	-0.3	0
bin	-0.28	0
bin	-0.26	0
bin	-0.24	0
bin	-0.22	0
bin	-0.2	0
bin	-0.18	0
bin	-0.16	0
bin	-0.14	0
bin	-0.12	0
bin	-0.1	0
bin	-0.08	0
bin	-0.06	0
bin	-0.04	0
bin	-0.02	0
bin	0	1
bin	0.02	0
bin	0.04	0
bin	0.06	0
bin	0.08	0
bin	0.1	0
bin	0.12	0
bin	0.14	0
bin	0.16	0
bin	0.18	0
bin	0.2	0
bin	0.22	0
bin	0.24	0
bin	0.26	0
bin	0.28	0
bin	0.3	0
bin	0.32	0
bin	0.34	0
bin	0.36	0
bin	0.38	0
bin	0.4	0
bin	0.42	0
bin	0.44	0
bin	0.46	0
bin	0.48	0
bin	0.5	0
statistic small_network.node1.phy[0].shaper.transmissionSelection qPcp1Latency:stats
field count 1
field mean 0
field stddev -nan
field min 0
field max 0
field sum 0
field sqrsum 0
attr interpolationmode none
attr title "End-to-end latency, stats"
attr unit s
statistic small_network.node1.phy[0].shaper.transmissionSelection qPcp1Latency:histogram
field count 1
field mean 0
field stddev -nan
field min 0
field max 0
field sum 0
field sqrsum 0
attr interpolationmode none
attr title "End-to-end latency, histogram"
attr unit s
bin	-inf	0
bin	-0.5	0
bin	-0.48	0
bin	-0.46	0
bin	-0.44	0
bin	-0.42	0
bin	-0.4	0
bin	-0.38	0
bin	-0.36	0
bin	-0.34	0
bin	-0.32	0
bin	-0.3	0
bin	-0.28	0
bin	-0.26	0
bin	-0.24	0
bin	-0.22	0
bin	-0.2	0
bin	-0.18	0
bin	-0.16	0
bin	-0.14	0
bin	-0.12	0
bin	-0.1	0
bin	-0.08	0
bin	-0.06	0
bin	-0.04	0
bin	-0.02	0
bin	0	1
bin	0.02	0
bin	0.04	0
bin	0.06	0
bin	0.08	0
bin	0.1	0
bin	0.12	0
bin	0.14	0
bin	0.16	0
bin	0.18	0
bin	0.2	0
bin	0.22	0
bin	0.24	0
bin	0.26	0
bin	0.28	0
bin	0.3	0
bin	0.32	0
bin	0.34	0
bin	0.36	0
bin	0.38	0
bin	0.4	0
bin	0.42	0
bin	0.44	0
bin	0.46	0
bin	0.48	0
bin	0.5	0
scalar small_network.node1.phy[0].shaper.transmissionSelection qPcp1Pk:count 1
attr title "Received Packets, count"
attr unit packets
scalar small_network.node1.phy[0].shaper.transmissionSelection qPcp1Bytes:sum(packetBytes) 0
attr interpolationmode none
attr title "Received Bytes, sum(packetBytes)"
attr unit B
statistic small_network.node1.phy[0].shaper.transmissionSelection qPcp1Bytes:histogram(packetBytes)
field count 1
field mean 0
field stddev -nan
field min 0
field max 0
field sum 0
field sqrsum 0
attr interpolationmode none
attr title "Received Bytes, histogram(packetBytes)"
attr unit B
bin	-inf	0
bin	-0.5	0
bin	-0.48	0
bin	-0.46	0
bin	-0.44	0
bin	-0.42	0
bin	-0.4	0
bin	-0.38	0
bin	-0.36	0
bin	-0.34	0
bin	-0.32	0
bin	-0.3	0
bin	-0.28	0
bin	-0.26	0
bin	-0.24	0
bin	-0.22	0
bin	-0.2	0
bin	-0.18	0
bin	-0.16	0
bin	-0.14	0
bin	-0.12	0
bin	-0.1	0
bin	-0.08	0
bin	-0.06	0
bin	-0.04	0
bin	-0.02	0
bin	0	1
bin	0.02	0
bin	0.04	0
bin	0.06	0
bin	0.08	0
bin	0.1	0
bin	0.12	0
bin	0.14	0
bin	0.16	0
bin	0.18	0
bin	0.2	0
bin	0.22	0
bin	0.24	0
bin	0.26	0
bin	0.28	0
bin	0.3	0
bin	0.32	0
bin	0.34	0
bin	0.36	0
bin	0.38	0
bin	0.4	0
bin	0.42	0
bin	0.44	0
bin	0.46	0
bin	0.48	0
bin	0.5	0
statistic small_network.node1.phy[0].shaper.transmissionSelection qPcp0Latency:stats
field count 100002
field mean 0
field stddev 0
field min 0
field max 0
field sum 0
field sqrsum 0
attr interpolationmode none
attr title "End-to-end latency, stats"
attr unit s
statistic small_network.node1.phy[0].shaper.transmissionSelection qPcp0Latency:histogram
field count 100002
field mean 0
field stddev 0
field min 0
field max 0
field sum 0
field sqrsum 0
attr interpolationmode none
attr title "End-to-end latency, histogram"
attr unit s
bin	-inf	0
bin	-0.5	0
bin	-0.48	0
bin	-0.46	0
bin	-0.44	0
bin	-0.42	0
bin	-0.4	0
bin	-0.38	0
bin	-0.36	0
bin	-0.34	0
bin	-0.32	0
bin	-0.3	0
bin	-0.28	0
bin	-0.26	0
bin	-0.24	0
bin	-0.22	0
bin	-0.2	0
bin	-0.18	0
bin	-0.16	0
bin	-0.14	0
bin	-0.12	0
bin	-0.1	0
bin	-0.08	0
bin	-0.06	0
bin	-0.04	0
bin	-0.02	0
bin	0	100002
bin	0.02	0
bin	0.04	0
bin	0.06	0
bin	0.08	0
bin	0.1	0
bin	0.12	0
bin	0.14	0
bin	0.16	0
bin	0.18	0
bin	0.2	0
bin	0.22	0
bin	0.24	0
bin	0.26	0
bin	0.28	0
bin	0.3	0
bin	0.32	0
bin	0.34	0
bin	0.36	0
bin	0.38	0
bin	0.4	0
bin	0.42	0
bin	0.44	0
bin	0.46	0
bin	0.48	0
bin	0.5	0
scalar small_network.node1.phy[0].shaper.transmissionSelection qPcp0Pk:count 100002
attr title "Received Packets, count"
attr unit packets
scalar small_network.node1.phy[0].shaper.transmissionSelection qPcp0Bytes:sum(packetBytes) 6400064
attr interpolationmode none
attr title "Received Bytes, sum(packetBytes)"
attr unit B
statistic small_network.node1.phy[0].shaper.transmissionSelection qPcp0Bytes:histogram(packetBytes)
field count 100002
field mean 63.9993600128
field stddev 0.20238374642347
field min 0
field max 64
field sum 6400064
field sqrsum 409604096
attr interpolationmode none
attr title "Received Bytes, histogram(packetBytes)"
attr unit B
bin	-inf	0
bin	0	1
bin	1	0
bin	2	0
bin	3	0
bin	4	0
bin	5	0
bin	6	0
bin	7	0
bin	8	0
bin	9	0
bin	10	0
bin	11	0
bin	12	0
bin	13	0
bin	14	0
bin	15	0
bin	16	0
bin	17	0
bin	18	0
bin	19	0
bin	20	0
bin	21	0
bin	22	0
bin	23	0
bin	24	0
bin	25	0
bin	26	0
bin	27	0
bin	28	0
bin	29	0
bin	30	0
bin	31	0
bin	32	0
bin	33	0
bin	34	0
bin	35	0
bin	36	0
bin	37	0
bin	38	0
bin	39	0
bin	40	0
bin	41	0
bin	42	0
bin	43	0
bin	44	0
bin	45	0
bin	46	0
bin	47	0
bin	48	0
bin	49	0
bin	50	0
bin	51	0
bin	52	0
bin	53	0
bin	54	0
bin	55	0
bin	56	0
bin	57	0
bin	58	0
bin	59	0
bin	60	0
bin	61	0
bin	62	0
bin	63	0
bin	64	100001
bin	65	0
bin	66	0
bin	67	0
bin	68	0
bin	69	0
bin	70	0
bin	71	0
bin	72	0
bin	73	0
bin	74	0
bin	75	0
bin	76	0
bin	77	0
bin	78	0
bin	79	0
bin	80	0
statistic small_network.node1.phy[0].inControl rxLatency:stats
field count 2
field mean 9.157e-06
field stddev 0
field min 9.157e-06
field max 9.157e-06
field sum 1.8314e-05
field sqrsum 1.67701298e-10
attr interpolationmode none
attr source messageAge(rxPk)
attr title "End-to-end latency (received), stats"
attr unit s
statistic small_network.node1.phy[0].inControl rxLatency:histogram
field count 2
field mean 9.157e-06
field stddev 0
field min 9.157e-06
field max 9.157e-06
field sum 1.8314e-05
field sqrsum 1.67701298e-10
attr interpolationmode none
attr source messageAge(rxPk)
attr title "End-to-end latency (received), histogram"
attr unit s
bin	-inf	0
bin	0	2
bin	0.01	0
bin	0.02	0
bin	0.03	0
bin	0.04	0
bin	0.05	0
bin	0.06	0
bin	0.07	0
bin	0.08	0
bin	0.09	0
bin	0.1	0
bin	0.11	0
bin	0.12	0
bin	0.13	0
bin	0.14	0
bin	0.15	0
bin	0.16	0
bin	0.17	0
bin	0.18	0
bin	0.19	0
bin	0.2	0
bin	0.21	0
bin	0.22	0
bin	0.23	0
bin	0.24	0
bin	0.25	0
bin	0.26	0
bin	0.27	0
bin	0.28	0
bin	0.29	0
bin	0.3	0
bin	0.31	0
bin	0.32	0
bin	0.33	0
bin	0.34	0
bin	0.35	0
bin	0.36	0
bin	0.37	0
bin	0.38	0
bin	0.39	0
bin	0.4	0
bin	0.41	0
bin	0.42	0
bin	0.43	0
bin	0.44	0
bin	0.45	0
bin	0.46	0
bin	0.47	0
bin	0.48	0
bin	0.49	0
bin	0.5	0
bin	0.51	0
scalar small_network.node1.phy[0].mac "simulated time" 1
scalar small_network.node1.phy[0].mac full-duplex 1
scalar small_network.node1.phy[0].mac "frames/sec sent" 150000
scalar small_network.node1.phy[0].mac "frames/sec rcvd" 2
scalar small_network.node1.phy[0].mac "bits/sec sent" 76800000
scalar small_network.node1.phy[0].mac "bits/sec rcvd" 1024
scalar small_network.node1.phy[0].mac "rx channel idle (%)" 99.9998848
scalar small_network.node1.phy[0].mac "rx channel utilization (%)" 0.0001152
scalar small_network.node1.phy[0].mac droppedPkNotForUs:count 0
attr interpolationmode none
attr source dropPkNotForUs
attr title "packets dropped/not for us, count"
scalar small_network.node1.phy[0].mac droppedPkNotForUs:sum(packetBytes) 0
attr interpolationmode none
attr source dropPkNotForUs
attr title "packets dropped/not for us, sum(packetBytes)"
scalar small_network.node1.phy[0].mac droppedPkIfaceDown:count 0
attr interpolationmode none
attr source dropPkIfaceDown
attr title "packets dropped/interface down, count"
scalar small_network.node1.phy[0].mac droppedPkIfaceDown:sum(packetBytes) 0
attr interpolationmode none
attr source dropPkIfaceDown
attr title "packets dropped/interface down, sum(packetBytes)"
scalar small_network.node1.phy[0].mac droppedPkBitError:count 0
attr interpolationmode none
attr source dropPkBitError
attr title "packets dropped/bit error, count"
scalar small_network.node1.phy[0].mac droppedPkBitError:sum(packetBytes) 0
attr interpolationmode none
attr source dropPkBitError
attr title "packets dropped/bit error, sum(packetBytes)"
scalar small_network.node1.phy[0].mac rxPkFromHL:count 150001
attr interpolationmode none
attr source rxPkFromHL
attr title "packet bytes from higher layer, count"
scalar small_network.node1.phy[0].mac rxPkFromHL:sum(packetBytes) 9600064
attr interpolationmode none
attr source rxPkFromHL
attr title "packet bytes from higher layer, sum(packetBytes)"
scalar small_network.node1.phy[0].mac rxPausePkUnits:count 0
attr interpolationmode none
attr title "pause units received, count"
scalar small_network.node1.phy[0].mac rxPausePkUnits:sum 0
attr interpolationmode none
attr title "pause units received, sum"
scalar small_network.node1.phy[0].mac txPausePkUnits:count 0
attr interpolationmode none
attr title "pause units sent, count"
scalar small_network.node1.phy[0].mac txPausePkUnits:sum 0
attr interpolationmode none
attr title "pause units sent, sum"
scalar small_network.node1.phy[0].mac rxPkOk:count 2
attr interpolationmode none
attr source rxPkOk
attr title "packets received OK, count"
scalar small_network.node1.phy[0].mac rxPkOk:sum(packetBytes) 128
attr interpolationmode none
attr source rxPkOk
attr title "packets received OK, sum(packetBytes)"
scalar small_network.node1.phy[0].mac txPk:count 150000
attr interpolationmode none
attr source txPk
attr title "packets transmitted, count"
scalar small_network.node1.phy[0].mac txPk:sum(packetBytes) 9600000
attr interpolationmode none
attr source txPk
attr title "packets transmitted, sum(packetBytes)"
scalar small_network.node1.phy[0].mac passedUpPk:count 2
attr interpolationmode none
attr source packetSentToUpper
attr title "packets passed to higher layer, count"
scalar small_network.node1.phy[0].mac passedUpPk:sum(packetBytes) 128
attr interpolationmode none
attr source packetSentToUpper
attr title "packets passed to higher layer, sum(packetBytes)"
scalar small_network.node1.avbCTC dropped:count 0
attr source droppedPk
attr title "Packets Dropped, count"
scalar small_network.node1.avbCTC rxPk:count 0
attr source rxPk
attr title "Received Packets, count"
scalar small_network.node1.avbCTC rxBytes:sum(packetBytes) 0
attr interpolationmode none
attr source rxPk
attr title "Received Bytes, sum(packetBytes)"
attr unit B
statistic small_network.node1.avbCTC latency:stats
field count 0
field mean -nan
field stddev -nan
field min -nan
field max -nan
field sum 0
field sqrsum 0
attr interpolationmode none
attr source messageAge(rxPk)
attr title "End-to-end latency, stats"
attr unit s
statistic small_network.node1.avbCTC latency:histogram
field count 0
field mean -nan
field stddev -nan
field min -nan
field max -nan
field sum 0
field sqrsum 0
attr interpolationmode none
attr source messageAge(rxPk)
attr title "End-to-end latency, histogram"
attr unit s
bin	-inf	0
bin	0	0
bin	1	0
scalar small_network.node1.encap pauseSent:count 0
attr title "pause sent, count"
scalar small_network.node1.encap pauseSent:sum 0
attr title "pause sent, sum"
scalar small_network.node1.encap decapPk:count 0
attr interpolationmode none
attr source decapPk
attr title "packets decapsulated, count"
scalar small_network.node1.encap decapPk:sum(packetBytes) 0
attr interpolationmode none
attr source decapPk
attr title "packets decapsulated, sum(packetBytes)"
scalar small_network.node1.encap encapPk:count 0
attr interpolationmode none
attr source encapPk
attr title "packets encapsulated, count"
scalar small_network.node1.encap encapPk:sum(packetBytes) 0
attr interpolationmode none
attr source encapPk
attr title "packets encapsulated, sum(packetBytes)"
scalar small_network.node1.scheduler.period[0] numberOfCycles:count 199
attr interpolationmode none
attr source newCycle
attr title "Number of cycle, count"
statistic small_network.node1.app[0] payloadOverTime:stats
field count 100001
field mean 18
field stddev 0
field min 18
field max 18
field sum 1800018
field sqrsum 32400324
attr interpolationmode linear
attr source payloadSignal
attr title "payload over time, stats"
attr unit B
statistic small_network.node1.app[0] payloadOverTime:histogram
field count 100001
field mean 18
field stddev 0
field min 18
field max 18
field sum 1800018
field sqrsum 32400324
attr interpolationmode linear
attr source payloadSignal
attr title "payload over time, histogram"
attr unit B
bin	-inf	0
bin	17	0
bin	18	100001
bin	19	0
statistic small_network.node1.app[0] sendIntervalOverTime:stats
field count 100001
field mean 9.9999999999808e-06
field stddev 2.1936644182603e-11
field min 1e-05
field max 1e-05
field sum 1.0000099999981
field sqrsum 1.000010000001e-05
attr interpolationmode linear
attr source intervalSignal
attr title "send interval over time, stats"
attr unit s
statistic small_network.node1.app[0] sendIntervalOverTime:histogram
field count 100001
field mean 9.9999999999808e-06
field stddev 2.1936644182603e-11
field min 1e-05
field max 1e-05
field sum 1.0000099999981
field sqrsum 1.000010000001e-05
attr interpolationmode linear
attr source intervalSignal
attr title "send interval over time, histogram"
attr unit s
bin	-inf	0
bin	0	100001
bin	0.01	0
bin	0.02	0
bin	0.03	0
bin	0.04	0
bin	0.05	0
bin	0.06	0
bin	0.07	0
bin	0.08	0
bin	0.09	0
bin	0.1	0
bin	0.11	0
bin	0.12	0
bin	0.13	0
bin	0.14	0
bin	0.15	0
bin	0.16	0
bin	0.17	0
bin	0.18	0
bin	0.19	0
bin	0.2	0
bin	0.21	0
bin	0.22	0
bin	0.23	0
bin	0.24	0
bin	0.25	0
bin	0.26	0
bin	0.27	0
bin	0.28	0
bin	0.29	0
bin	0.3	0
bin	0.31	0
bin	0.32	0
bin	0.33	0
bin	0.34	0
bin	0.35	0
bin	0.36	0
bin	0.37	0
bin	0.38	0
bin	0.39	0
bin	0.4	0
bin	0.41	0
bin	0.42	0
bin	0.43	0
bin	0.44	0
bin	0.45	0
bin	0.46	0
bin	0.47	0
bin	0.48	0
bin	0.49	0
bin	0.5	0
bin	0.51	0
statistic small_network.node1.app[1] payloadOverTime:stats
field count 10001
field mean 18
field stddev 0
field min 18
field max 18
field sum 180018
field sqrsum 3240324
attr interpolationmode linear
attr source payloadSignal
attr title "payload over time, stats"
attr unit B
statistic small_network.node1.app[1] payloadOverTime:histogram
field count 10001
field mean 18
field stddev 0
field min 18
field max 18
field sum 180018
field sqrsum 3240324
attr interpolationmode linear
attr source payloadSignal
attr title "payload over time, histogram"
attr unit B
bin	-inf	0
bin	17	0
bin	18	10001
bin	19	0
statistic small_network.node1.app[1] sendIntervalOverTime:stats
field count 0
field mean -nan
field stddev -nan
field min -nan
field max -nan
field sum 0
field sqrsum 0
attr interpolationmode linear
attr source intervalSignal
attr title "send interval over time, stats"
attr unit s
statistic small_network.node1.app[1] sendIntervalOverTime:histogram
field count 0
field mean -nan
field stddev -nan
field min -nan
field max -nan
field sum 0
field sqrsum 0
attr interpolationmode linear
attr source intervalSignal
attr title "send interval over time, histogram"
attr unit s
bin	-inf	0
bin	0	0
bin	1	0
statistic small_network.node1.app[2] payloadOverTime:stats
field count 40001
field mean 18
field stddev 0
field min 18
field max 18
field sum 720018
field sqrsum 12960324
attr interpolationmode linear
attr source payloadSignal
attr title "payload over time, stats"
attr unit B
statistic small_network.node1.app[2] payloadOverTime:histogram
field count 40001
field mean 18
field stddev 0
field min 18
field max 18
field sum 720018
field sqrsum 12960324
attr interpolationmode linear
attr source payloadSignal
attr title "payload over time, histogram"
attr unit B
bin	-inf	0
bin	17	0
bin	18	40001
bin	19	0
statistic small_network.node1.app[2] sendIntervalOverTime:stats
field count 0
field mean -nan
field stddev -nan
field min -nan
field max -nan
field sum 0
field sqrsum 0
attr interpolationmode linear
attr source intervalSignal
attr title "send interval over time, stats"
attr unit s
statistic small_network.node1.app[2] sendIntervalOverTime:histogram
field count 0
field mean -nan
field stddev -nan
field min -nan
field max -nan
field sum 0
field sqrsum 0
attr interpolationmode linear
attr source intervalSignal
attr title "send interval over time, histogram"
attr unit s
bin	-inf	0
bin	0	0
bin	1	0
scalar small_network.node1.bgIn dropped:sum 0
attr source dropped
attr title "Dropped frames, sum"
attr unit packets
scalar small_network.node1.bgIn rxPk:count 2
attr source rxPk
attr title "Received Packets, count"
attr unit packets
scalar small_network.node1.bgIn rxBytes:sum(packetBytes) 128
attr interpolationmode none
attr source rxPk
attr title "Received Bytes, sum(packetBytes)"
attr unit B
statistic small_network.node1.bgIn rxBytes:histogram(packetBytes)
field count 2
field mean 64
field stddev 0
field min 64
field max 64
field sum 128
field sqrsum 8192
attr interpolationmode none
attr source rxPk
attr title "Received Bytes, histogram(packetBytes)"
attr unit B
bin	-inf	0
bin	63	0
bin	64	2
bin	65	0
statistic small_network.node1.bgIn rxLatency:stats
field count 2
field mean 9.157e-06
field stddev 0
field min 9.157e-06
field max 9.157e-06
field sum 1.8314e-05
field sqrsum 1.67701298e-10
attr interpolationmode none
attr source messageAge(rxPk)
attr title "End-to-end latency (received), stats"
attr unit s
statistic small_network.node1.bgIn rxLatency:histogram
field count 2
field mean 9.157e-06
field stddev 0
field min 9.157e-06
field max 9.157e-06
field sum 1.8314e-05
field sqrsum 1.67701298e-10
attr interpolationmode none
attr source messageAge(rxPk)
attr title "End-to-end latency (received), histogram"
attr unit s
bin	-inf	0
bin	0	2
bin	0.01	0
bin	0.02	0
bin	0.03	0
bin	0.04	0
bin	0.05	0
bin	0.06	0
bin	0.07	0
bin	0.08	0
bin	0.09	0
bin	0.1	0
bin	0.11	0
bin	0.12	0
bin	0.13	0
bin	0.14	0
bin	0.15	0
bin	0.16	0
bin	0.17	0
bin	0.18	0
bin	0.19	0
bin	0.2	0
bin	0.21	0
bin	0.22	0
bin	0.23	0
bin	0.24	0
bin	0.25	0
bin	0.26	0
bin	0.27	0
bin	0.28	0
bin	0.29	0
bin	0.3	0
bin	0.31	0
bin	0.32	0
bin	0.33	0
bin	0.34	0
bin	0.35	0
bin	0.36	0
bin	0.37	0
bin	0.38	0
bin	0.39	0
bin	0.4	0
bin	0.41	0
bin	0.42	0
bin	0.43	0
bin	0.44	0
bin	0.45	0
bin	0.46	0
bin	0.47	0
bin	0.48	0
bin	0.49	0
bin	0.5	0
bin	0.51	0
scalar small_network.node1.bgIn txPk:count 0
attr source txPk
attr title "Transmitted Packets, count"
attr unit packets
scalar small_network.node1.bgIn txBytes:sum(packetBytes) 0
attr interpolationmode none
attr source txPk
attr title "Transmitted Bytes, sum(packetBytes)"
attr unit B
statistic small_network.node1.bgIn txBytes:histogram(packetBytes)
field count 0
field mean -nan
field stddev -nan
field min -nan
field max -nan
field sum 0
field sqrsum 0
attr interpolationmode none
attr source txPk
attr title "Transmitted Bytes, histogram(packetBytes)"
attr unit B
bin	-inf	0
bin	0	0
bin	1	0
statistic small_network.node1.bgIn txLatency:stats
field count 0
field mean -nan
field stddev -nan
field min -nan
field max -nan
field sum 0
field sqrsum 0
attr interpolationmode none
attr source messageAge(txPk)
attr title "End-to-end latency (transmitted), stats"
attr unit s
statistic small_network.node1.bgIn txLatency:histogram
field count 0
field mean -nan
field stddev -nan
field min -nan
field max -nan
field sum 0
field sqrsum 0
attr interpolationmode none
attr source messageAge(txPk)
attr title "End-to-end latency (transmitted), histogram"
attr unit s
bin	-inf	0
bin	0	0
bin	1	0
scalar small_network.node1.bgOut dropped:sum 0
attr source dropped
attr title "Dropped frames, sum"
attr unit packets
scalar small_network.node1.bgOut rxPk:count 150003
attr source rxPk
attr title "Received Packets, count"
attr unit packets
scalar small_network.node1.bgOut rxBytes:sum(packetBytes) 9600192
attr interpolationmode none
attr source rxPk
attr title "Received Bytes, sum(packetBytes)"
attr unit B
statistic small_network.node1.bgOut rxBytes:histogram(packetBytes)
field count 150003
field mean 64
field stddev 0
field min 64
field max 64
field sum 9600192
field sqrsum 614412288
attr interpolationmode none
attr source rxPk
attr title "Received Bytes, histogram(packetBytes)"
attr unit B
bin	-inf	0
bin	63	0
bin	64	150003
bin	65	0
statistic small_network.node1.bgOut rxLatency:stats
field count 150003
field mean 0
field stddev 0
field min 0
field max 0
field sum 0
field sqrsum 0
attr interpolationmode none
attr source messageAge(rxPk)
attr title "End-to-end latency (received), stats"
attr unit s
statistic small_network.node1.bgOut rxLatency:histogram
field count 150003
field mean 0
field stddev 0
field min 0
field max 0
field sum 0
field sqrsum 0
attr interpolationmode none
attr source messageAge(rxPk)
attr title "End-to-end latency (received), histogram"
attr unit s
bin	-inf	0
bin	-0.5	0
bin	-0.48	0
bin	-0.46	0
bin	-0.44	0
bin	-0.42	0
bin	-0.4	0
bin	-0.38	0
bin	-0.36	0
bin	-0.34	0
bin	-0.32	0
bin	-0.3	0
bin	-0.28	0
bin	-0.26	0
bin	-0.24	0
bin	-0.22	0
bin	-0.2	0
bin	-0.18	0
bin	-0.16	0
bin	-0.14	0
bin	-0.12	0
bin	-0.1	0
bin	-0.08	0
bin	-0.06	0
bin	-0.04	0
bin	-0.02	0
bin	0	150003
bin	0.02	0
bin	0.04	0
bin	0.06	0
bin	0.08	0
bin	0.1	0
bin	0.12	0
bin	0.14	0
bin	0.16	0
bin	0.18	0
bin	0.2	0
bin	0.22	0
bin	0.24	0
bin	0.26	0
bin	0.28	0
bin	0.3	0
bin	0.32	0
bin	0.34	0
bin	0.36	0
bin	0.38	0
bin	0.4	0
bin	0.42	0
bin	0.44	0
bin	0.46	0
bin	0.48	0
bin	0.5	0
scalar small_network.node1.bgOut txPk:count 150003
attr source txPk
attr title "Transmitted Packets, count"
attr unit packets
scalar small_network.node1.bgOut txBytes:sum(packetBytes) 9600192
attr interpolationmode none
attr source txPk
attr title "Transmitted Bytes, sum(packetBytes)"
attr unit B
statistic small_network.node1.bgOut txBytes:histogram(packetBytes)
field count 150003
field mean 64
field stddev 0
field min 64
field max 64
field sum 9600192
field sqrsum 614412288
attr interpolationmode none
attr source txPk
attr title "Transmitted Bytes, histogram(packetBytes)"
attr unit B
bin	-inf	0
bin	63	0
bin	64	150003
bin	65	0
statistic small_network.node1.bgOut txLatency:stats
field count 150003
field mean 0
field stddev 0
field min 0
field max 0
field sum 0
field sqrsum 0
attr interpolationmode none
attr source messageAge(txPk)
attr title "End-to-end latency (transmitted), stats"
attr unit s
statistic small_network.node1.bgOut txLatency:histogram
field count 150003
field mean 0
field stddev 0
field min 0
field max 0
field sum 0
field sqrsum 0
attr interpolationmode none
attr source messageAge(txPk)
attr title "End-to-end latency (transmitted), histogram"
attr unit s
bin	-inf	0
bin	-0.5	0
bin	-0.48	0
bin	-0.46	0
bin	-0.44	0
bin	-0.42	0
bin	-0.4	0
bin	-0.38	0
bin	-0.36	0
bin	-0.34	0
bin	-0.32	0
bin	-0.3	0
bin	-0.28	0
bin	-0.26	0
bin	-0.24	0
bin	-0.22	0
bin	-0.2	0
bin	-0.18	0
bin	-0.16	0
bin	-0.14	0
bin	-0.12	0
bin	-0.1	0
bin	-0.08	0
bin	-0.06	0
bin	-0.04	0
bin	-0.02	0
bin	0	150003
bin	0.02	0
bin	0.04	0
bin	0.06	0
bin	0.08	0
bin	0.1	0
bin	0.12	0
bin	0.14	0
bin	0.16	0
bin	0.18	0
bin	0.2	0
bin	0.22	0
bin	0.24	0
bin	0.26	0
bin	0.28	0
bin	0.3	0
bin	0.32	0
bin	0.34	0
bin	0.36	0
bin	0.38	0
bin	0.4	0
bin	0.42	0
bin	0.44	0
bin	0.46	0
bin	0.48	0
bin	0.5	0
scalar small_network.node2.phy[0].shaper.queue[0] dropped:sum 0
attr source dropped
attr title "Dropped frames, sum"
attr unit packets
scalar small_network.node2.phy[0].shaper.queue[0] rxPk:count 1
attr source rxPk
attr title "Received Packets, count"
attr unit packets
scalar small_network.node2.phy[0].shaper.queue[0] rxBytes:sum(packetBytes) 64
attr interpolationmode none
attr source rxPk
attr title "Received Bytes, sum(packetBytes)"
attr unit B
statistic small_network.node2.phy[0].shaper.queue[0] rxBytes:histogram(packetBytes)
field count 1
field mean 64
field stddev -nan
field min 64
field max 64
field sum 64
field sqrsum 4096
attr interpolationmode none
attr source rxPk
attr title "Received Bytes, histogram(packetBytes)"
attr unit B
bin	-inf	0
bin	63	0
bin	64	1
bin	65	0
statistic small_network.node2.phy[0].shaper.queue[0] rxLatency:stats
field count 1
field mean 0
field stddev -nan
field min 0
field max 0
field sum 0
field sqrsum 0
attr interpolationmode none
attr source messageAge(rxPk)
attr title "End-to-end latency (received), stats"
attr unit s
statistic small_network.node2.phy[0].shaper.queue[0] rxLatency:histogram
field count 1
field mean 0
field stddev -nan
field min 0
field max 0
field sum 0
field sqrsum 0
attr interpolationmode none
attr source messageAge(rxPk)
attr title "End-to-end latency (received), histogram"
attr unit s
bin	-inf	0
bin	-0.5	0
bin	-0.48	0
bin	-0.46	0
bin	-0.44	0
bin	-0.42	0
bin	-0.4	0
bin	-0.38	0
bin	-0.36	0
bin	-0.34	0
bin	-0.32	0
bin	-0.3	0
bin	-0.28	0
bin	-0.26	0
bin	-0.24	0
bin	-0.22	0
bin	-0.2	0
bin	-0.18	0
bin	-0.16	0
bin	-0.14	0
bin	-0.12	0
bin	-0.1	0
bin	-0.08	0
bin	-0.06	0
bin	-0.04	0
bin	-0.02	0
bin	0	1
bin	0.02	0
bin	0.04	0
bin	0.06	0
bin	0.08	0
bin	0.1	0
bin	0.12	0
bin	0.14	0
bin	0.16	0
bin	0.18	0
bin	0.2	0
bin	0.22	0
bin	0.24	0
bin	0.26	0
bin	0.28	0
bin	0.3	0
bin	0.32	0
bin	0.34	0
bin	0.36	0
bin	0.38	0
bin	0.4	0
bin	0.42	0
bin	0.44	0
bin	0.46	0
bin	0.48	0
bin	0.5	0
scalar small_network.node2.phy[0].shaper.queue[0] txPk:count 0
attr source txPk
attr title "Transmitted Packets, count"
attr unit packets
scalar small_network.node2.phy[0].shaper.queue[0] txBytes:sum(packetBytes) 0
attr interpolationmode none
attr source txPk
attr title "Transmitted Bytes, sum(packetBytes)"
attr unit B
statistic small_network.node2.phy[0].shaper.queue[0] txBytes:histogram(packetBytes)
field count 0
field mean -nan
field stddev -nan
field min -nan
field max -nan
field sum 0
field sqrsum 0
attr interpolationmode none
attr source txPk
attr title "Transmitted Bytes, histogram(packetBytes)"
attr unit B
bin	-inf	0
bin	0	0
bin	1	0
statistic small_network.node2.phy[0].shaper.queue[0] txLatency:stats
field count 0
field mean -nan
field stddev -nan
field min -nan
field max -nan
field sum 0
field sqrsum 0
attr interpolationmode none
attr source messageAge(txPk)
attr title "End-to-end latency (transmitted), stats"
attr unit s
statistic small_network.node2.phy[0].shaper.queue[0] txLatency:histogram
field count 0
field mean -nan
field stddev -nan
field min -nan
field max -nan
field sum 0
field sqrsum 0
attr interpolationmode none
attr source messageAge(txPk)
attr title "End-to-end latency (transmitted), histogram"
attr unit s
bin	-inf	0
bin	0	0
bin	1	0
scalar small_network.node2.phy[0].shaper.queue[1] dropped:sum 0
attr source dropped
attr title "Dropped frames, sum"
attr unit packets
scalar small_network.node2.phy[0].shaper.queue[1] rxPk:count 0
attr source rxPk
attr title "Received Packets, count"
attr unit packets
scalar small_network.node2.phy[0].shaper.queue[1] rxBytes:sum(packetBytes) 0
attr interpolationmode none
attr source rxPk
attr title "Received Bytes, sum(packetBytes)"
attr unit B
statistic small_network.node2.phy[0].shaper.queue[1] rxBytes:histogram(packetBytes)
field count 0
field mean -nan
field stddev -nan
field min -nan
field max -nan
field sum 0
field sqrsum 0
attr interpolationmode none
attr source rxPk
attr title "Received Bytes, histogram(packetBytes)"
attr unit B
bin	-inf	0
bin	0	0
bin	1	0
statistic small_network.node2.phy[0].shaper.queue[1] rxLatency:stats
field count 0
field mean -nan
field stddev -nan
field min -nan
field max -nan
field sum 0
field sqrsum 0
attr interpolationmode none
attr source messageAge(rxPk)
attr title "End-to-end latency (received), stats"
attr unit s
statistic small_network.node2.phy[0].shaper.queue[1] rxLatency:histogram
field count 0
field mean -nan
field stddev -nan
field min -nan
field max -nan
field sum 0
field sqrsum 0
attr interpolationmode none
attr source messageAge(rxPk)
attr title "End-to-end latency (received), histogram"
attr unit s
bin	-inf	0
bin	0	0
bin	1	0
scalar small_network.node2.phy[0].shaper.queue[1] txPk:count 0
attr source txPk
attr title "Transmitted Packets, count"
attr unit packets
scalar small_network.node2.phy[0].shaper.queue[1] txBytes:sum(packetBytes) 0
attr interpolationmode none
attr source txPk
attr title "Transmitted Bytes, sum(packetBytes)"
attr unit B
statistic small_network.node2.phy[0].shaper.queue[1] txBytes:histogram(packetBytes)
field count 0
field mean -nan
field stddev -nan
field min -nan
field max -nan
field sum 0
field sqrsum 0
attr interpolationmode none
attr source txPk
attr title "Transmitted Bytes, histogram(packetBytes)"
attr unit B
bin	-inf	0
bin	0	0
bin	1	0
statistic small_network.node2.phy[0].shaper.queue[1] txLatency:stats
field count 0
field mean -nan
field stddev -nan
field min -nan
field max -nan
field sum 0
field sqrsum 0
attr interpolationmode none
attr source messageAge(txPk)
attr title "End-to-end latency (transmitted), stats"
attr unit s
statistic small_network.node2.phy[0].shaper.queue[1] txLatency:histogram
field count 0
field mean -nan
field stddev -nan
field min -nan
field max -nan
field sum 0
field sqrsum 0
attr interpolationmode none
attr source messageAge(txPk)
attr title "End-to-end latency (transmitted), histogram"
attr unit s
bin	-inf	0
bin	0	0
bin	1	0
scalar small_network.node2.phy[0].shaper.queue[2] dropped:sum 0
attr source dropped
attr title "Dropped frames, sum"
attr unit packets
scalar small_network.node2.phy[0].shaper.queue[2] rxPk:count 0
attr source rxPk
attr title "Received Packets, count"
attr unit packets
scalar small_network.node2.phy[0].shaper.queue[2] rxBytes:sum(packetBytes) 0
attr interpolationmode none
attr source rxPk
attr title "Received Bytes, sum(packetBytes)"
attr unit B
statistic small_network.node2.phy[0].shaper.queue[2] rxBytes:histogram(packetBytes)
field count 0
field mean -nan
field stddev -nan
field min -nan
field max -nan
field sum 0
field sqrsum 0
attr interpolationmode none
attr source rxPk
attr title "Received Bytes, histogram(packetBytes)"
attr unit B
bin	-inf	0
bin	0	0
bin	1	0
statistic small_network.node2.phy[0].shaper.queue[2] rxLatency:stats
field count 0
field mean -nan
field stddev -nan
field min -nan
field max -nan
field sum 0
field sqrsum 0
attr interpolationmode none
attr source messageAge(rxPk)
attr title "End-to-end latency (received), stats"
attr unit s
statistic small_network.node2.phy[0].shaper.queue[2] rxLatency:histogram
field count 0
field mean -nan
field stddev -nan
field min -nan
field max -nan
field sum 0
field sqrsum 0
attr interpolationmode none
attr source messageAge(rxPk)
attr title "End-to-end latency (received), histogram"
attr unit s
bin	-inf	0
bin	0	0
bin	1	0
scalar small_network.node2.phy[0].shaper.queue[2] txPk:count 0
attr source txPk
attr title "Transmitted Packets, count"
attr unit packets
scalar small_network.node2.phy[0].shaper.queue[2] txBytes:sum(packetBytes) 0
attr interpolationmode none
attr source txPk
attr title "Transmitted Bytes, sum(packetBytes)"
attr unit B
statistic small_network.node2.phy[0].shaper.queue[2] txBytes:histogram(packetBytes)
field count 0
field mean -nan
field stddev -nan
field min -nan
field max -nan
field sum 0
field sqrsum 0
attr interpolationmode none
attr source txPk
attr title "Transmitted Bytes, histogram(packetBytes)"
attr unit B
bin	-inf	0
bin	0	0
bin	1	0
statistic small_network.node2.phy[0].shaper.queue[2] txLatency:stats
field count 0
field mean -nan
field stddev -nan
field min -nan
field max -nan
field sum 0
field sqrsum 0
attr interpolationmode none
attr source messageAge(txPk)
attr title "End-to-end latency (transmitted), stats"
attr unit s
statistic small_network.node2.phy[0].shaper.queue[2] txLatency:histogram
field count 0
field mean -nan
field stddev -nan
field min -nan
field max -nan
field sum 0
field sqrsum 0
attr interpolationmode none
attr source messageAge(txPk)
attr title "End-to-end latency (transmitted), histogram"
attr unit s
bin	-inf	0
bin	0	0
bin	1	0
scalar small_network.node2.phy[0].shaper.queue[3] dropped:sum 0
attr source dropped
attr title "Dropped frames, sum"
attr unit packets
scalar small_network.node2.phy[0].shaper.queue[3] rxPk:count 0
attr source rxPk
attr title "Received Packets, count"
attr unit packets
scalar small_network.node2.phy[0].shaper.queue[3] rxBytes:sum(packetBytes) 0
attr interpolationmode none
attr source rxPk
attr title "Received Bytes, sum(packetBytes)"
attr unit B
statistic small_network.node2.phy[0].shaper.queue[3] rxBytes:histogram(packetBytes)
field count 0
field mean -nan
field stddev -nan
field min -nan
field max -nan
field sum 0
field sqrsum 0
attr interpolationmode none
attr source rxPk
attr title "Received Bytes, histogram(packetBytes)"
attr unit B
bin	-inf	0
bin	0	0
bin	1	0
statistic small_network.node2.phy[0].shaper.queue[3] rxLatency:stats
field count 0
field mean -nan
field stddev -nan
field min -nan
field max -nan
field sum 0
field sqrsum 0
attr interpolationmode none
attr source messageAge(rxPk)
attr title "End-to-end latency (received), stats"
attr unit s
statistic small_network.node2.phy[0].shaper.queue[3] rxLatency:histogram
field count 0
field mean -nan
field stddev -nan
field min -nan
field max -nan
field sum 0
field sqrsum 0
attr interpolationmode none
attr source messageAge(rxPk)
attr title "End-to-end latency (received), histogram"
attr unit s
bin	-inf	0
bin	0	0
bin	1	0
scalar small_network.node2.phy[0].shaper.queue[3] txPk:count 0
attr source txPk
attr title "Transmitted Packets, count"
attr unit packets
scalar small_network.node2.phy[0].shaper.queue[3] txBytes:sum(packetBytes) 0
attr interpolationmode none
attr source txPk
attr title "Transmitted Bytes, sum(packetBytes)"
attr unit B
statistic small_network.node2.phy[0].shaper.queue[3] txBytes:histogram(packetBytes)
field count 0
field mean -nan
field stddev -nan
field min -nan
field max -nan
field sum 0
field sqrsum 0
attr interpolationmode none
attr source txPk
attr title "Transmitted Bytes, histogram(packetBytes)"
attr unit B
bin	-inf	0
bin	0	0
bin	1	0
statistic small_network.node2.phy[0].shaper.queue[3] txLatency:stats
field count 0
field mean -nan
field stddev -nan
field min -nan
field max -nan
field sum 0
field sqrsum 0
attr interpolationmode none
attr source messageAge(txPk)
attr title "End-to-end latency (transmitted), stats"
attr unit s
[...]
attr source rxPkQ3
attr title "Received Bytes, histogram(packetBytes)"
attr unit B
bin	-inf	0
bin	0	0
bin	1	0
statistic small_network.node3.app[0] rxLatencyQ3:stats
field count 0
field mean -nan
field stddev -nan
field min -nan
field max -nan
field sum 0
field sqrsum 0
attr interpolationmode none
attr source messageAge(rxPkQ3)
attr title "End-to-end latency, stats"
attr unit s
statistic small_network.node3.app[0] rxLatencyQ3:histogram
field count 0
field mean -nan
field stddev -nan
field min -nan
field max -nan
field sum 0
field sqrsum 0
attr interpolationmode none
attr source messageAge(rxPkQ3)
attr title "End-to-end latency, histogram"
attr unit s
bin	-inf	0
bin	0	0
bin	1	0
statistic small_network.node3.app[0] rxLatencyInnerQ3:stats
field count 0
field mean -nan
field stddev -nan
field min -nan
field max -nan
field sum 0
field sqrsum 0
attr interpolationmode none
attr source messageAge(innerMessage(rxPkQ3))
attr title "End-to-end latency inner, stats"
attr unit s
statistic small_network.node3.app[0] rxLatencyInnerQ3:histogram
field count 0
field mean -nan
field stddev -nan
field min -nan
field max -nan
field sum 0
field sqrsum 0
attr interpolationmode none
attr source messageAge(innerMessage(rxPkQ3))
attr title "End-to-end latency inner, histogram"
attr unit s
bin	-inf	0
bin	0	0
bin	1	0
scalar small_network.node3.app[0] rxPkQ2:count 0
attr "" ""
attr source rxPkQ2
attr title "Received Packets, count"
attr unit packets
scalar small_network.node3.app[0] rxBytesQ2:sum(packetBytes) 0
attr interpolationmode none
attr source rxPkQ2
attr title "Received Bytes, sum(packetBytes)"
attr unit B
statistic small_network.node3.app[0] rxBytesQ2:histogram(packetBytes)
field count 0
field mean -nan
field stddev -nan
field min -nan
field max -nan
field sum 0
field sqrsum 0
attr interpolationmode none
attr source rxPkQ2
attr title "Received Bytes, histogram(packetBytes)"
attr unit B
bin	-inf	0
bin	0	0
bin	1	0
statistic small_network.node3.app[0] rxLatencyQ2:stats
field count 0
field mean -nan
field stddev -nan
field min -nan
field max -nan
field sum 0
field sqrsum 0
attr interpolationmode none
attr source messageAge(rxPkQ2)
attr title "End-to-end latency, stats"
attr unit s
statistic small_network.node3.app[0] rxLatencyQ2:histogram
field count 0
field mean -nan
field stddev -nan
field min -nan
field max -nan
field sum 0
field sqrsum 0
attr interpolationmode none
attr source messageAge(rxPkQ2)
attr title "End-to-end latency, histogram"
attr unit s
bin	-inf	0
bin	0	0
bin	1	0
statistic small_network.node3.app[0] rxLatencyInnerQ2:stats
field count 0
field mean -nan
field stddev -nan
field min -nan
field max -nan
field sum 0
field sqrsum 0
attr interpolationmode none
attr source messageAge(innerMessage(rxPkQ2))
attr title "End-to-end latency inner, stats"
attr unit s
statistic small_network.node3.app[0] rxLatencyInnerQ2:histogram
field count 0
field mean -nan
field stddev -nan
field min -nan
field max -nan
field sum 0
field sqrsum 0
attr interpolationmode none
attr source messageAge(innerMessage(rxPkQ2))
attr title "End-to-end latency inner, histogram"
attr unit s
bin	-inf	0
bin	0	0
bin	1	0
scalar small_network.node3.app[0] rxPkQ1:count 0
attr "" ""
attr source rxPkQ1
attr title "Received Packets, count"
attr unit packets
scalar small_network.node3.app[0] rxBytesQ1:sum(packetBytes) 0
attr interpolationmode none
attr source rxPkQ1
attr title "Received Bytes, sum(packetBytes)"
attr unit B
statistic small_network.node3.app[0] rxBytesQ1:histogram(packetBytes)
field count 0
field mean -nan
field stddev -nan
field min -nan
field max -nan
field sum 0
field sqrsum 0
attr interpolationmode none
attr source rxPkQ1
attr title "Received Bytes, histogram(packetBytes)"
attr unit B
bin	-inf	0
bin	0	0
bin	1	0
statistic small_network.node3.app[0] rxLatencyQ1:stats
field count 0
field mean -nan
field stddev -nan
field min -nan
field max -nan
field sum 0
field sqrsum 0
attr interpolationmode none
attr source messageAge(rxPkQ1)
attr title "End-to-end latency, stats"
attr unit s
statistic small_network.node3.app[0] rxLatencyQ1:histogram
field count 0
field mean -nan
field stddev -nan
field min -nan
field max -nan
field sum 0
field sqrsum 0
attr interpolationmode none
attr source messageAge(rxPkQ1)
attr title "End-to-end latency, histogram"
attr unit s
bin	-inf	0
bin	0	0
bin	1	0
statistic small_network.node3.app[0] rxLatencyInnerQ1:stats
field count 0
field mean -nan
field stddev -nan
field min -nan
field max -nan
field sum 0
field sqrsum 0
attr interpolationmode none
attr source messageAge(innerMessage(rxPkQ1))
attr title "End-to-end latency inner, stats"
attr unit s
statistic small_network.node3.app[0] rxLatencyInnerQ1:histogram
field count 0
field mean -nan
field stddev -nan
field min -nan
field max -nan
field sum 0
field sqrsum 0
attr interpolationmode none
attr source messageAge(innerMessage(rxPkQ1))
attr title "End-to-end latency inner, histogram"
attr unit s
bin	-inf	0
bin	0	0
bin	1	0
scalar small_network.node3.app[0] rxPkQ0:count 0
attr "" ""
attr source rxPkQ0
attr title "Received Packets, count"
attr unit packets
scalar small_network.node3.app[0] rxBytesQ0:sum(packetBytes) 0
attr interpolationmode none
attr source rxPkQ0
attr title "Received Bytes, sum(packetBytes)"
attr unit B
statistic small_network.node3.app[0] rxBytesQ0:histogram(packetBytes)
field count 0
field mean -nan
field stddev -nan
field min -nan
field max -nan
field sum 0
field sqrsum 0
attr interpolationmode none
attr source rxPkQ0
attr title "Received Bytes, histogram(packetBytes)"
attr unit B
bin	-inf	0
bin	0	0
bin	1	0
statistic small_network.node3.app[0] rxLatencyQ0:stats
field count 0
field mean -nan
field stddev -nan
field min -nan
field max -nan
field sum 0
field sqrsum 0
attr interpolationmode none
attr source messageAge(rxPkQ0)
attr title "End-to-end latency, stats"
attr unit s
statistic small_network.node3.app[0] rxLatencyQ0:histogram
field count 0
field mean -nan
field stddev -nan
field min -nan
field max -nan
field sum 0
field sqrsum 0
attr interpolationmode none
attr source messageAge(rxPkQ0)
attr title "End-to-end latency, histogram"
attr unit s
bin	-inf	0
bin	0	0
bin	1	0
statistic small_network.node3.app[0] rxLatencyInnerQ0:stats
field count 0
field mean -nan
field stddev -nan
field min -nan
field max -nan
field sum 0
field sqrsum 0
attr interpolationmode none
attr source messageAge(innerMessage(rxPkQ0))
attr title "End-to-end latency inner, stats"
attr unit s
statistic small_network.node3.app[0] rxLatencyInnerQ0:histogram
field count 0
field mean -nan
field stddev -nan
field min -nan
field max -nan
field sum 0
field sqrsum 0
attr interpolationmode none
attr source messageAge(innerMessage(rxPkQ0))
attr title "End-to-end latency inner, histogram"
attr unit s
bin	-inf	0
bin	0	0
bin	1	0
scalar small_network.node3.app[0] rxPk:count 49990
attr source rxPk
attr title "Received Packets, count"
attr unit packets
scalar small_network.node3.app[0] rxBytes:sum(packetBytes) 3199360
attr interpolationmode none
attr source rxPk
attr title "Received Bytes, sum(packetBytes)"
attr unit B
statistic small_network.node3.app[0] rxBytes:histogram(packetBytes)
field count 49990
field mean 64
field stddev 0
field min 64
field max 64
field sum 3199360
field sqrsum 204759040
attr interpolationmode none
attr source rxPk
attr title "Received Bytes, histogram(packetBytes)"
attr unit B
bin	-inf	0
bin	63	0
bin	64	49990
bin	65	0
statistic small_network.node3.app[0] rxLatency:stats
field count 49990
field mean 0.00033777864811356
field stddev 0.00088084708521127
field min 9.157e-06
field max 0.004002940518
field sum 16.885554619197
field sqrsum 0.044489624380717
attr interpolationmode none
attr source messageAge(rxPk)
attr title "End-to-end latency, stats"
attr unit s
statistic small_network.node3.app[0] rxLatency:histogram
field count 49990
field mean 0.00033777864811356
field stddev 0.00088084708521127
field min 9.157e-06
field max 0.004002940518
field sum 16.885554619197
field sqrsum 0.044489624380717
attr interpolationmode none
attr source messageAge(rxPk)
attr title "End-to-end latency, histogram"
attr unit s
bin	-inf	0
bin	0	42000
bin	5e-05	0
bin	0.0001	200
bin	0.00015	0
bin	0.0002	200
bin	0.00025	0
bin	0.0003	200
bin	0.00035	0
bin	0.0004	200
bin	0.00045	0
bin	0.0005	200
bin	0.00055	0
bin	0.0006	200
bin	0.00065	0
bin	0.0007	200
bin	0.00075	0
bin	0.0008	200
bin	0.00085	0
bin	0.0009	200
bin	0.00095	0
bin	0.001	200
bin	0.00105	0
bin	0.0011	200
bin	0.00115	0
bin	0.0012	200
bin	0.00125	0
bin	0.0013	200
bin	0.00135	0
bin	0.0014	200
bin	0.00145	0
bin	0.0015	200
bin	0.00155	0
bin	0.0016	200
bin	0.00165	0
bin	0.0017	200
bin	0.00175	0
bin	0.0018	200
bin	0.00185	0
bin	0.0019	200
bin	0.00195	0
bin	0.002	200
bin	0.00205	0
bin	0.0021	200
bin	0.00215	0
bin	0.0022	200
bin	0.00225	0
bin	0.0023	200
bin	0.00235	0
bin	0.0024	200
bin	0.00245	0
bin	0.0025	200
bin	0.00255	0
bin	0.0026	200
bin	0.00265	0
bin	0.0027	200
bin	0.00275	0
bin	0.0028	200
bin	0.00285	0
bin	0.0029	200
bin	0.00295	0
bin	0.003	200
bin	0.00305	0
bin	0.0031	199
bin	0.00315	0
bin	0.0032	199
bin	0.00325	0
bin	0.0033	199
bin	0.00335	0
bin	0.0034	199
bin	0.00345	0
bin	0.0035	199
bin	0.00355	0
bin	0.0036	199
bin	0.00365	0
bin	0.0037	199
bin	0.00375	0
bin	0.0038	199
bin	0.00385	0
bin	0.0039	199
bin	0.00395	7
bin	0.004	192
bin	0.00405	0
statistic small_network.node3.app[0] rxLatencyInner:stats
field count 49990
field mean 0.00033777864811356
field stddev 0.00088084708521127
field min 9.157e-06
field max 0.004002940518
field sum 16.885554619197
field sqrsum 0.044489624380717
attr interpolationmode none
attr source messageAge(innerMessage(rxPk))
attr title "End-to-end latency inner, stats"
attr unit s
statistic small_network.node3.app[0] rxLatencyInner:histogram
field count 49990
field mean 0.00033777864811356
field stddev 0.00088084708521127
field min 9.157e-06
field max 0.004002940518
field sum 16.885554619197
field sqrsum 0.044489624380717
attr interpolationmode none
attr source messageAge(innerMessage(rxPk))
attr title "End-to-end latency inner, histogram"
attr unit s
bin	-inf	0
bin	0	42000
bin	5e-05	0
bin	0.0001	200
bin	0.00015	0
bin	0.0002	200
bin	0.00025	0
bin	0.0003	200
bin	0.00035	0
bin	0.0004	200
bin	0.00045	0
bin	0.0005	200
bin	0.00055	0
bin	0.0006	200
bin	0.00065	0
bin	0.0007	200
bin	0.00075	0
bin	0.0008	200
bin	0.00085	0
bin	0.0009	200
bin	0.00095	0
bin	0.001	200
bin	0.00105	0
bin	0.0011	200
bin	0.00115	0
bin	0.0012	200
bin	0.00125	0
bin	0.0013	200
bin	0.00135	0
bin	0.0014	200
bin	0.00145	0
bin	0.0015	200
bin	0.00155	0
bin	0.0016	200
bin	0.00165	0
bin	0.0017	200
bin	0.00175	0
bin	0.0018	200
bin	0.00185	0
bin	0.0019	200
bin	0.00195	0
bin	0.002	200
bin	0.00205	0
bin	0.0021	200
bin	0.00215	0
bin	0.0022	200
bin	0.00225	0
bin	0.0023	200
bin	0.00235	0
bin	0.0024	200
bin	0.00245	0
bin	0.0025	200
bin	0.00255	0
bin	0.0026	200
bin	0.00265	0
bin	0.0027	200
bin	0.00275	0
bin	0.0028	200
bin	0.00285	0
bin	0.0029	200
bin	0.00295	0
bin	0.003	200
bin	0.00305	0
bin	0.0031	199
bin	0.00315	0
bin	0.0032	199
bin	0.00325	0
bin	0.0033	199
bin	0.00335	0
bin	0.0034	199
bin	0.00345	0
bin	0.0035	199
bin	0.00355	0
bin	0.0036	199
bin	0.00365	0
bin	0.0037	199
bin	0.00375	0
bin	0.0038	199
bin	0.00385	0
bin	0.0039	199
bin	0.00395	7
bin	0.004	192
bin	0.00405	0
scalar small_network.node3.bgIn dropped:sum 0
attr source dropped
attr title "Dropped frames, sum"
attr unit packets
scalar small_network.node3.bgIn rxPk:count 49990
attr source rxPk
attr title "Received Packets, count"
attr unit packets
scalar small_network.node3.bgIn rxBytes:sum(packetBytes) 3199360
attr interpolationmode none
attr source rxPk
attr title "Received Bytes, sum(packetBytes)"
attr unit B
statistic small_network.node3.bgIn rxBytes:histogram(packetBytes)
field count 49990
field mean 64
field stddev 0
field min 64
field max 64
field sum 3199360
field sqrsum 204759040
attr interpolationmode none
attr source rxPk
attr title "Received Bytes, histogram(packetBytes)"
attr unit B
bin	-inf	0
bin	63	0
bin	64	49990
bin	65	0
statistic small_network.node3.bgIn rxLatency:stats
field count 49990
field mean 0.00033777864811356
field stddev 0.00088084708521127
field min 9.157e-06
field max 0.004002940518
field sum 16.885554619197
field sqrsum 0.044489624380717
attr interpolationmode none
attr source messageAge(rxPk)
attr title "End-to-end latency (received), stats"
attr unit s
statistic small_network.node3.bgIn rxLatency:histogram
field count 49990
field mean 0.00033777864811356
field stddev 0.00088084708521127
field min 9.157e-06
field max 0.004002940518
field sum 16.885554619197
field sqrsum 0.044489624380717
attr interpolationmode none
attr source messageAge(rxPk)
attr title "End-to-end latency (received), histogram"
attr unit s
bin	-inf	0
bin	0	42000
bin	5e-05	0
bin	0.0001	200
bin	0.00015	0
bin	0.0002	200
bin	0.00025	0
bin	0.0003	200
bin	0.00035	0
bin	0.0004	200
bin	0.00045	0
bin	0.0005	200
bin	0.00055	0
bin	0.0006	200
bin	0.00065	0
bin	0.0007	200
bin	0.00075	0
bin	0.0008	200
bin	0.00085	0
bin	0.0009	200
bin	0.00095	0
bin	0.001	200
bin	0.00105	0
bin	0.0011	200
bin	0.00115	0
bin	0.0012	200
bin	0.00125	0
bin	0.0013	200
bin	0.00135	0
bin	0.0014	200
bin	0.00145	0
bin	0.0015	200
bin	0.00155	0
bin	0.0016	200
bin	0.00165	0
bin	0.0017	200
bin	0.00175	0
bin	0.0018	200
bin	0.00185	0
bin	0.0019	200
bin	0.00195	0
bin	0.002	200
bin	0.00205	0
bin	0.0021	200
bin	0.00215	0
bin	0.0022	200
bin	0.00225	0
bin	0.0023	200
bin	0.00235	0
bin	0.0024	200
bin	0.00245	0
bin	0.0025	200
bin	0.00255	0
bin	0.0026	200
bin	0.00265	0
bin	0.0027	200
bin	0.00275	0
bin	0.0028	200
bin	0.00285	0
bin	0.0029	200
bin	0.00295	0
bin	0.003	200
bin	0.00305	0
bin	0.0031	199
bin	0.00315	0
bin	0.0032	199
bin	0.00325	0
bin	0.0033	199
bin	0.00335	0
bin	0.0034	199
bin	0.00345	0
bin	0.0035	199
bin	0.00355	0
bin	0.0036	199
bin	0.00365	0
bin	0.0037	199
bin	0.00375	0
bin	0.0038	199
bin	0.00385	0
bin	0.0039	199
bin	0.00395	7
bin	0.004	192
bin	0.00405	0
scalar small_network.node3.bgIn txPk:count 49990
attr source txPk
attr title "Transmitted Packets, count"
attr unit packets
scalar small_network.node3.bgIn txBytes:sum(packetBytes) 3199360
attr interpolationmode none
attr source txPk
attr title "Transmitted Bytes, sum(packetBytes)"
attr unit B
statistic small_network.node3.bgIn txBytes:histogram(packetBytes)
field count 49990
field mean 64
field stddev 0
field min 64
field max 64
field sum 3199360
field sqrsum 204759040
attr interpolationmode none
attr source txPk
attr title "Transmitted Bytes, histogram(packetBytes)"
attr unit B
bin	-inf	0
bin	63	0
bin	64	49990
bin	65	0
statistic small_network.node3.bgIn txLatency:stats
field count 49990
field mean 0.00033777864811356
field stddev 0.00088084708521127
field min 9.157e-06
field max 0.004002940518
field sum 16.885554619197
field sqrsum 0.044489624380717
attr interpolationmode none
attr source messageAge(txPk)
attr title "End-to-end latency (transmitted), stats"
attr unit s
statistic small_network.node3.bgIn txLatency:histogram
field count 49990
field mean 0.00033777864811356
field stddev 0.00088084708521127
field min 9.157e-06
field max 0.004002940518
field sum 16.885554619197
field sqrsum 0.044489624380717
attr interpolationmode none
attr source messageAge(txPk)
attr title "End-to-end latency (transmitted), histogram"
attr unit s
bin	-inf	0
bin	0	42000
bin	5e-05	0
bin	0.0001	200
bin	0.00015	0
bin	0.0002	200
bin	0.00025	0
bin	0.0003	200
bin	0.00035	0
bin	0.0004	200
bin	0.00045	0
bin	0.0005	200
bin	0.00055	0
bin	0.0006	200
bin	0.00065	0
bin	0.0007	200
bin	0.00075	0
bin	0.0008	200
bin	0.00085	0
bin	0.0009	200
bin	0.00095	0
bin	0.001	200
bin	0.00105	0
bin	0.0011	200
bin	0.00115	0
bin	0.0012	200
bin	0.00125	0
bin	0.0013	200
bin	0.00135	0
bin	0.0014	200
bin	0.00145	0
bin	0.0015	200
bin	0.00155	0
bin	0.0016	200
bin	0.00165	0
bin	0.0017	200
bin	0.00175	0
bin	0.0018	200
bin	0.00185	0
bin	0.0019	200
bin	0.00195	0
bin	0.002	200
bin	0.00205	0
bin	0.0021	200
bin	0.00215	0
bin	0.0022	200
bin	0.00225	0
bin	0.0023	200
bin	0.00235	0
bin	0.0024	200
bin	0.00245	0
bin	0.0025	200
bin	0.00255	0
bin	0.0026	200
bin	0.00265	0
bin	0.0027	200
bin	0.00275	0
bin	0.0028	200
bin	0.00285	0
bin	0.0029	200
bin	0.00295	0
bin	0.003	200
bin	0.00305	0
bin	0.0031	199
bin	0.00315	0
bin	0.0032	199
bin	0.00325	0
bin	0.0033	199
bin	0.00335	0
bin	0.0034	199
bin	0.00345	0
bin	0.0035	199
bin	0.00355	0
bin	0.0036	199
bin	0.00365	0
bin	0.0037	199
bin	0.00375	0
bin	0.0038	199
bin	0.00385	0
bin	0.0039	199
bin	0.00395	7
bin	0.004	192
bin	0.00405	0
scalar small_network.node3.bgOut dropped:sum 0
attr source dropped
attr title "Dropped frames, sum"
attr unit packets
scalar small_network.node3.bgOut rxPk:count 1
attr source rxPk
attr title "Received Packets, count"
attr unit packets
scalar small_network.node3.bgOut rxBytes:sum(packetBytes) 36
attr interpolationmode none
attr source rxPk
attr title "Received Bytes, sum(packetBytes)"
attr unit B
statistic small_network.node3.bgOut rxBytes:histogram(packetBytes)
field count 1
field mean 36
field stddev -nan
field min 36
field max 36
field sum 36
field sqrsum 1296
attr interpolationmode none
attr source rxPk
attr title "Received Bytes, histogram(packetBytes)"
attr unit B
bin	-inf	0
bin	35	0
bin	36	1
bin	37	0
statistic small_network.node3.bgOut rxLatency:stats
field count 1
field mean 0
field stddev -nan
field min 0
field max 0
field sum 0
field sqrsum 0
attr interpolationmode none
attr source messageAge(rxPk)
attr title "End-to-end latency (received), stats"
attr unit s
statistic small_network.node3.bgOut rxLatency:histogram
field count 1
field mean 0
field stddev -nan
field min 0
field max 0
field sum 0
field sqrsum 0
attr interpolationmode none
attr source messageAge(rxPk)
attr title "End-to-end latency (received), histogram"
attr unit s
bin	-inf	0
bin	-0.5	0
bin	-0.48	0
bin	-0.46	0
bin	-0.44	0
bin	-0.42	0
bin	-0.4	0
bin	-0.38	0
bin	-0.36	0
bin	-0.34	0
bin	-0.32	0
bin	-0.3	0
bin	-0.28	0
bin	-0.26	0
bin	-0.24	0
bin	-0.22	0
bin	-0.2	0
bin	-0.18	0
bin	-0.16	0
bin	-0.14	0
bin	-0.12	0
bin	-0.1	0
bin	-0.08	0
bin	-0.06	0
bin	-0.04	0
bin	-0.02	0
bin	0	1
bin	0.02	0
bin	0.04	0
bin	0.06	0
bin	0.08	0
bin	0.1	0
bin	0.12	0
bin	0.14	0
bin	0.16	0
bin	0.18	0
bin	0.2	0
bin	0.22	0
bin	0.24	0
bin	0.26	0
bin	0.28	0
bin	0.3	0
bin	0.32	0
bin	0.34	0
bin	0.36	0
bin	0.38	0
bin	0.4	0
bin	0.42	0
bin	0.44	0
bin	0.46	0
bin	0.48	0
bin	0.5	0
scalar small_network.node3.bgOut txPk:count 1
attr source txPk
attr title "Transmitted Packets, count"
attr unit packets
scalar small_network.node3.bgOut txBytes:sum(packetBytes) 64
attr interpolationmode none
attr source txPk
attr title "Transmitted Bytes, sum(packetBytes)"
attr unit B
statistic small_network.node3.bgOut txBytes:histogram(packetBytes)
field count 1
field mean 64
field stddev -nan
field min 64
field max 64
field sum 64
field sqrsum 4096
attr interpolationmode none
attr source txPk
attr title "Transmitted Bytes, histogram(packetBytes)"
attr unit B
bin	-inf	0
bin	63	0
bin	64	1
bin	65	0
statistic small_network.node3.bgOut txLatency:stats
field count 1
field mean 0
field stddev -nan
field min 0
field max 0
field sum 0
field sqrsum 0
attr interpolationmode none
attr source messageAge(txPk)
attr title "End-to-end latency (transmitted), stats"
attr unit s
statistic small_network.node3.bgOut txLatency:histogram
field count 1
field mean 0
field stddev -nan
field min 0
field max 0
field sum 0
field sqrsum 0
attr interpolationmode none
attr source messageAge(txPk)
attr title "End-to-end latency (transmitted), histogram"
attr unit s
bin	-inf	0
bin	-0.5	0
bin	-0.48	0
bin	-0.46	0
bin	-0.44	0
bin	-0.42	0
bin	-0.4	0
bin	-0.38	0
bin	-0.36	0
bin	-0.34	0
bin	-0.32	0
bin	-0.3	0
bin	-0.28	0
bin	-0.26	0
bin	-0.24	0
bin	-0.22	0
bin	-0.2	0
bin	-0.18	0
bin	-0.16	0
bin	-0.14	0
bin	-0.12	0
bin	-0.1	0
bin	-0.08	0
bin	-0.06	0
bin	-0.04	0
bin	-0.02	0
bin	0	1
bin	0.02	0
bin	0.04	0
bin	0.06	0
bin	0.08	0
bin	0.1	0
bin	0.12	0
bin	0.14	0
bin	0.16	0
bin	0.18	0
bin	0.2	0
bin	0.22	0
bin	0.24	0
bin	0.26	0
bin	0.28	0
bin	0.3	0
bin	0.32	0
bin	0.34	0
bin	0.36	0
bin	0.38	0
bin	0.4	0
bin	0.42	0
bin	0.44	0
bin	0.46	0
bin	0.48	0
bin	0.5	0

