file 234630121 1575554230                                       
version 2
run General-0-20191205-14:05:24-5904
attr configname General
attr datetime 20191205-14:05:24
attr experiment General
attr inifile omnetpp.ini
attr iterationvars ""
attr iterationvarsf ""
attr measurement ""
attr network small_network
attr processid 5904
attr repetition 0
attr replication #0
attr resultdir results
attr runnumber 0
attr seedset 0
param **.scheduler.tick 80ns
param **.scheduler.numPeriods 1
param **.scheduler.period[0].cycle_ticks sec_to_tick(0.005s)
param **.scheduler.oscillator.max_drift 2800ppm
param **.scheduler.oscillator.drift_change uniform(-75ppm,75ppm)
param **.precission 16ns
param **.gateControlList.period "\"period[0]\""
param **.node1.phy[*].mac.address "\"0A-00-00-00-00-01\""
param **.node1.numApps 3
param **.node1.app[0].typename "\"BGTrafficSourceApp\""
param **.node1.app[0].destAddress "\"0A-00-00-00-00-02\""
param **.node1.app[0].payload "intWithUnit(uniform(18Byte, 18Byte))"
param **.node1.app[0].sendInterval 0.01ms
param **.node1.app[1].typename "\"IEEE8021QTrafficSourceApp\""
param **.node1.app[1].destAddress "\"0A-00-00-00-00-03\""
param **.node1.app[1].payload "intWithUnit(uniform(18Byte, 18Byte))"
param **.node1.app[1].sendInterval 0.1ms
param **.node1.app[1].priority 5
param **.node1.app[1].vid 0
param **.node1.app[2].typename "\"IEEE8021QTrafficSourceApp\""
param **.node1.app[2].destAddress "\"0A-00-00-00-00-03\""
param **.node1.app[2].payload "intWithUnit(uniform(18Byte, 18Byte))"
param **.node1.app[2].sendInterval 0.025ms
param **.node1.app[2].priority 7
param **.node1.app[2].vid 0
param **.node1.phy[*].taggedVIDs "\"0\""
param **.node2.phy[*].mac.address "\"0A-00-00-00-00-02\""
param **.node2.numApps 1
param **.node2.app[0].typename "\"BGTrafficSinkApp\""
param **.node2.app[0].srcAddress "\"0A-00-00-00-00-01\""
param **.node2.bgIn.destination_gates "\"app[0].in\""
param **.node3.phy[*].mac.address "\"0A-00-00-00-00-03\""
param **.node3.numApps 1
param **.node3.app[0].typename "\"IEEE8021QTrafficSinkApp\""
param **.node3.app[0].srcAddress "\"0A-00-00-00-00-01\""
param **.node3.bgIn.destination_gates "\"app[0].in\""
param **.switch1.phy[0].taggedVIDs "\"0,1,2,3,4,5,6,7\""
param **.switch1.phy[1].untaggedVID 7
param **.switch1.phy[1].taggedVIDs "\"0,1,2,3,4,5,6,7\""
param **.switch1.phy[*].shaper.transmissionSelectionAlgorithm[6].typename "\"CreditBasedShaper\""
param **.switch1.phy[*].shaper.transmissionSelectionAlgorithm[6].srClass "\"B\""
param **.switch1.phy[*].shaper.gateControlList.controlList "\"o,o,o,o,o,C,C,o:0;o,o,C,C,C,C,C,o:0.002;C,C,C,C,C,o,o,o:0.003;o,C,C,C,C,C,C,o:0.004\""

vector 0 small_network.node1.ethg$o.channel busy:vector ETV
attr interpolationmode sample-hold
attr source channelBusy
vector 1 small_network.node2.ethg$o.channel busy:vector ETV
attr interpolationmode sample-hold
attr source channelBusy
vector 2 small_network.switch1.ethg$o[0].channel busy:vector ETV
attr interpolationmode sample-hold
attr source channelBusy
vector 3 small_network.switch1.ethg$o[1].channel busy:vector ETV
attr interpolationmode sample-hold
attr source channelBusy
vector 4 small_network.switch1.ethg$o[2].channel busy:vector ETV
attr interpolationmode sample-hold
attr source channelBusy
vector 5 small_network.node3.ethg$o.channel busy:vector ETV
attr interpolationmode sample-hold
attr source channelBusy
vector 6 small_network.node1.phy[0].shaper.transmissionSelection qPcp0Bytes:vector(packetBytes) ETV
attr interpolationmode none
attr title "Received Bytes, vector(packetBytes)"
attr unit B
vector 7 small_network.node1.phy[0].shaper.transmissionSelection qPcp0Bytes:floatingIntervalSumVector(packetBytes) ETV
vector 8 small_network.node1.phy[0].shaper.transmissionSelection qPcp0Latency:vector ETV
attr interpolationmode none
attr title "End-to-end latency, vector"
attr unit s
vector 9 small_network.node1.phy[0].shaper.transmissionSelection qPcp1Bytes:vector(packetBytes) ETV
attr interpolationmode none
attr title "Received Bytes, vector(packetBytes)"
attr unit B
vector 10 small_network.node1.phy[0].shaper.transmissionSelection qPcp1Bytes:floatingIntervalSumVector(packetBytes) ETV
vector 11 small_network.node1.phy[0].shaper.transmissionSelection qPcp1Latency:vector ETV
attr interpolationmode none
attr title "End-to-end latency, vector"
attr unit s
vector 12 small_network.node1.phy[0].shaper.transmissionSelection qPcp2Bytes:vector(packetBytes) ETV
attr interpolationmode none
attr title "Received Bytes, vector(packetBytes)"
attr unit B
vector 13 small_network.node1.phy[0].shaper.transmissionSelection qPcp2Bytes:floatingIntervalSumVector(packetBytes) ETV
vector 14 small_network.node1.phy[0].shaper.transmissionSelection qPcp2Latency:vector ETV
attr interpolationmode none
attr title "End-to-end latency, vector"
attr unit s
vector 15 small_network.node1.phy[0].shaper.transmissionSelection qPcp3Bytes:vector(packetBytes) ETV
attr interpolationmode none
attr title "Received Bytes, vector(packetBytes)"
attr unit B
vector 16 small_network.node1.phy[0].shaper.transmissionSelection qPcp3Bytes:floatingIntervalSumVector(packetBytes) ETV
vector 17 small_network.node1.phy[0].shaper.transmissionSelection qPcp3Latency:vector ETV
attr interpolationmode none
attr title "End-to-end latency, vector"
attr unit s
vector 18 small_network.node1.phy[0].shaper.transmissionSelection qPcp4Bytes:vector(packetBytes) ETV
attr interpolationmode none
attr title "Received Bytes, vector(packetBytes)"
attr unit B
vector 19 small_network.node1.phy[0].shaper.transmissionSelection qPcp4Bytes:floatingIntervalSumVector(packetBytes) ETV
vector 20 small_network.node1.phy[0].shaper.transmissionSelection qPcp4Latency:vector ETV
attr interpolationmode none
attr title "End-to-end latency, vector"
attr unit s
vector 21 small_network.node1.phy[0].shaper.transmissionSelection qPcp5Bytes:vector(packetBytes) ETV
attr interpolationmode none
attr title "Received Bytes, vector(packetBytes)"
attr unit B
vector 22 small_network.node1.phy[0].shaper.transmissionSelection qPcp5Bytes:floatingIntervalSumVector(packetBytes) ETV
vector 23 small_network.node1.phy[0].shaper.transmissionSelection qPcp5Latency:vector ETV
attr interpolationmode none
attr title "End-to-end latency, vector"
attr unit s
vector 24 small_network.node1.phy[0].shaper.transmissionSelection qPcp6Bytes:vector(packetBytes) ETV
attr interpolationmode none
attr title "Received Bytes, vector(packetBytes)"
attr unit B
vector 25 small_network.node1.phy[0].shaper.transmissionSelection qPcp6Bytes:floatingIntervalSumVector(packetBytes) ETV
vector 26 small_network.node1.phy[0].shaper.transmissionSelection qPcp6Latency:vector ETV
attr interpolationmode none
attr title "End-to-end latency, vector"
attr unit s
vector 27 small_network.node1.phy[0].shaper.transmissionSelection qPcp7Bytes:vector(packetBytes) ETV
attr interpolationmode none
attr title "Received Bytes, vector(packetBytes)"
attr unit B
vector 28 small_network.node1.phy[0].shaper.transmissionSelection qPcp7Bytes:floatingIntervalSumVector(packetBytes) ETV
vector 29 small_network.node1.phy[0].shaper.transmissionSelection qPcp7Latency:vector ETV
attr interpolationmode none
attr title "End-to-end latency, vector"
attr unit s
vector 30 small_network.node2.phy[0].shaper.transmissionSelection qPcp0Bytes:vector(packetBytes) ETV
attr interpolationmode none
attr title "Received Bytes, vector(packetBytes)"
attr unit B
vector 31 small_network.node2.phy[0].shaper.transmissionSelection qPcp0Bytes:floatingIntervalSumVector(packetBytes) ETV
vector 32 small_network.node2.phy[0].shaper.transmissionSelection qPcp0Latency:vector ETV
attr interpolationmode none
attr title "End-to-end latency, vector"
attr unit s
vector 33 small_network.node2.phy[0].shaper.transmissionSelection qPcp1Bytes:vector(packetBytes) ETV
attr interpolationmode none
attr title "Received Bytes, vector(packetBytes)"
attr unit B
vector 34 small_network.node2.phy[0].shaper.transmissionSelection qPcp1Bytes:floatingIntervalSumVector(packetBytes) ETV
vector 35 small_network.node2.phy[0].shaper.transmissionSelection qPcp1Latency:vector ETV
attr interpolationmode none
attr title "End-to-end latency, vector"
attr unit s
vector 36 small_network.node2.phy[0].shaper.transmissionSelection qPcp2Bytes:vector(packetBytes) ETV
attr interpolationmode none
attr title "Received Bytes, vector(packetBytes)"
attr unit B
vector 37 small_network.node2.phy[0].shaper.transmissionSelection qPcp2Bytes:floatingIntervalSumVector(packetBytes) ETV
vector 38 small_network.node2.phy[0].shaper.transmissionSelection qPcp2Latency:vector ETV
attr interpolationmode none
attr title "End-to-end latency, vector"
attr unit s
vector 39 small_network.node2.phy[0].shaper.transmissionSelection qPcp3Bytes:vector(packetBytes) ETV
attr interpolationmode none
attr title "Received Bytes, vector(packetBytes)"
attr unit B
vector 40 small_network.node2.phy[0].shaper.transmissionSelection qPcp3Bytes:floatingIntervalSumVector(packetBytes) ETV
vector 41 small_network.node2.phy[0].shaper.transmissionSelection qPcp3Latency:vector ETV
attr interpolationmode none
attr title "End-to-end latency, vector"
attr unit s
vector 42 small_network.node2.phy[0].shaper.transmissionSelection qPcp4Bytes:vector(packetBytes) ETV
attr interpolationmode none
attr title "Received Bytes, vector(packetBytes)"
attr unit B
vector 43 small_network.node2.phy[0].shaper.transmissionSelection qPcp4Bytes:floatingIntervalSumVector(packetBytes) ETV
vector 44 small_network.node2.phy[0].shaper.transmissionSelection qPcp4Latency:vector ETV
attr interpolationmode none
attr title "End-to-end latency, vector"
attr unit s
vector 45 small_network.node2.phy[0].shaper.transmissionSelection qPcp5Bytes:vector(packetBytes) ETV
attr interpolationmode none
attr title "Received Bytes, vector(packetBytes)"
attr unit B
vector 46 small_network.node2.phy[0].shaper.transmissionSelection qPcp5Bytes:floatingIntervalSumVector(packetBytes) ETV
vector 47 small_network.node2.phy[0].shaper.transmissionSelection qPcp5Latency:vector ETV
attr interpolationmode none
attr title "End-to-end latency, vector"
attr unit s
vector 48 small_network.node2.phy[0].shaper.transmissionSelection qPcp6Bytes:vector(packetBytes) ETV
attr interpolationmode none
attr title "Received Bytes, vector(packetBytes)"
attr unit B
vector 49 small_network.node2.phy[0].shaper.transmissionSelection qPcp6Bytes:floatingIntervalSumVector(packetBytes) ETV
vector 50 small_network.node2.phy[0].shaper.transmissionSelection qPcp6Latency:vector ETV
attr interpolationmode none
attr title "End-to-end latency, vector"
attr unit s
vector 51 small_network.node2.phy[0].shaper.transmissionSelection qPcp7Bytes:vector(packetBytes) ETV
attr interpolationmode none
attr title "Received Bytes, vector(packetBytes)"
attr unit B
vector 52 small_network.node2.phy[0].shaper.transmissionSelection qPcp7Bytes:floatingIntervalSumVector(packetBytes) ETV
vector 53 small_network.node2.phy[0].shaper.transmissionSelection qPcp7Latency:vector ETV
attr interpolationmode none
attr title "End-to-end latency, vector"
attr unit s
vector 54 small_network.switch1.phy[0].shaper.transmissionSelection qPcp0Bytes:vector(packetBytes) ETV
attr interpolationmode none
attr title "Received Bytes, vector(packetBytes)"
attr unit B
vector 55 small_network.switch1.phy[0].shaper.transmissionSelection qPcp0Bytes:floatingIntervalSumVector(packetBytes) ETV
vector 56 small_network.switch1.phy[0].shaper.transmissionSelection qPcp0Latency:vector ETV
attr interpolationmode none
attr title "End-to-end latency, vector"
attr unit s
vector 57 small_network.switch1.phy[0].shaper.transmissionSelection qPcp1Bytes:vector(packetBytes) ETV
attr interpolationmode none
attr title "Received Bytes, vector(packetBytes)"
attr unit B
vector 58 small_network.switch1.phy[0].shaper.transmissionSelection qPcp1Bytes:floatingIntervalSumVector(packetBytes) ETV
vector 59 small_network.switch1.phy[0].shaper.transmissionSelection qPcp1Latency:vector ETV
attr interpolationmode none
attr title "End-to-end latency, vector"
attr unit s
vector 60 small_network.switch1.phy[0].shaper.transmissionSelection qPcp2Bytes:vector(packetBytes) ETV
attr interpolationmode none
attr title "Received Bytes, vector(packetBytes)"
attr unit B
vector 61 small_network.switch1.phy[0].shaper.transmissionSelection qPcp2Bytes:floatingIntervalSumVector(packetBytes) ETV
vector 62 small_network.switch1.phy[0].shaper.transmissionSelection qPcp2Latency:vector ETV
attr interpolationmode none
attr title "End-to-end latency, vector"
attr unit s
vector 63 small_network.switch1.phy[0].shaper.transmissionSelection qPcp3Bytes:vector(packetBytes) ETV
attr interpolationmode none
attr title "Received Bytes, vector(packetBytes)"
attr unit B
vector 64 small_network.switch1.phy[0].shaper.transmissionSelection qPcp3Bytes:floatingIntervalSumVector(packetBytes) ETV
vector 65 small_network.switch1.phy[0].shaper.transmissionSelection qPcp3Latency:vector ETV
attr interpolationmode none
attr title "End-to-end latency, vector"
attr unit s
vector 66 small_network.switch1.phy[0].shaper.transmissionSelection qPcp4Bytes:vector(packetBytes) ETV
attr interpolationmode none
attr title "Received Bytes, vector(packetBytes)"
attr unit B
vector 67 small_network.switch1.phy[0].shaper.transmissionSelection qPcp4Bytes:floatingIntervalSumVector(packetBytes) ETV
vector 68 small_network.switch1.phy[0].shaper.transmissionSelection qPcp4Latency:vector ETV
attr interpolationmode none
attr title "End-to-end latency, vector"
attr unit s
vector 69 small_network.switch1.phy[0].shaper.transmissionSelection qPcp5Bytes:vector(packetBytes) ETV
attr interpolationmode none
attr title "Received Bytes, vector(packetBytes)"
attr unit B
vector 70 small_network.switch1.phy[0].shaper.transmissionSelection qPcp5Bytes:floatingIntervalSumVector(packetBytes) ETV
vector 71 small_network.switch1.phy[0].shaper.transmissionSelection qPcp5Latency:vector ETV
attr interpolationmode none
attr title "End-to-end latency, vector"
attr unit s
vector 72 small_network.switch1.phy[0].shaper.transmissionSelection qPcp6Bytes:vector(packetBytes) ETV
attr interpolationmode none
attr title "Received Bytes, vector(packetBytes)"
attr unit B
vector 73 small_network.switch1.phy[0].shaper.transmissionSelection qPcp6Bytes:floatingIntervalSumVector(packetBytes) ETV
vector 74 small_network.switch1.phy[0].shaper.transmissionSelection qPcp6Latency:vector ETV
attr interpolationmode none
attr title "End-to-end latency, vector"
attr unit s
vector 75 small_network.switch1.phy[0].shaper.transmissionSelection qPcp7Bytes:vector(packetBytes) ETV
attr interpolationmode none
attr title "Received Bytes, vector(packetBytes)"
attr unit B
vector 76 small_network.switch1.phy[0].shaper.transmissionSelection qPcp7Bytes:floatingIntervalSumVector(packetBytes) ETV
vector 77 small_network.switch1.phy[0].shaper.transmissionSelection qPcp7Latency:vector ETV
attr interpolationmode none
attr title "End-to-end latency, vector"
attr unit s
vector 78 small_network.switch1.phy[1].shaper.transmissionSelection qPcp0Bytes:vector(packetBytes) ETV
attr interpolationmode none
attr title "Received Bytes, vector(packetBytes)"
attr unit B
vector 79 small_network.switch1.phy[1].shaper.transmissionSelection qPcp0Bytes:floatingIntervalSumVector(packetBytes) ETV
vector 80 small_network.switch1.phy[1].shaper.transmissionSelection qPcp0Latency:vector ETV
attr interpolationmode none
attr title "End-to-end latency, vector"
attr unit s
vector 81 small_network.switch1.phy[1].shaper.transmissionSelection qPcp1Bytes:vector(packetBytes) ETV
attr interpolationmode none
attr title "Received Bytes, vector(packetBytes)"
attr unit B
vector 82 small_network.switch1.phy[1].shaper.transmissionSelection qPcp1Bytes:floatingIntervalSumVector(packetBytes) ETV
vector 83 small_network.switch1.phy[1].shaper.transmissionSelection qPcp1Latency:vector ETV
attr interpolationmode none
attr title "End-to-end latency, vector"
attr unit s
vector 84 small_network.switch1.phy[1].shaper.transmissionSelection qPcp2Bytes:vector(packetBytes) ETV
attr interpolationmode none
attr title "Received Bytes, vector(packetBytes)"
attr unit B
vector 85 small_network.switch1.phy[1].shaper.transmissionSelection qPcp2Bytes:floatingIntervalSumVector(packetBytes) ETV
vector 86 small_network.switch1.phy[1].shaper.transmissionSelection qPcp2Latency:vector ETV
attr interpolationmode none
attr title "End-to-end latency, vector"
attr unit s
vector 87 small_network.switch1.phy[1].shaper.transmissionSelection qPcp3Bytes:vector(packetBytes) ETV
attr interpolationmode none
attr title "Received Bytes, vector(packetBytes)"
attr unit B
vector 88 small_network.switch1.phy[1].shaper.transmissionSelection qPcp3Bytes:floatingIntervalSumVector(packetBytes) ETV
vector 89 small_network.switch1.phy[1].shaper.transmissionSelection qPcp3Latency:vector ETV
attr interpolationmode none
attr title "End-to-end latency, vector"
attr unit s
vector 90 small_network.switch1.phy[1].shaper.transmissionSelection qPcp4Bytes:vector(packetBytes) ETV
attr interpolationmode none
attr title "Received Bytes, vector(packetBytes)"
attr unit B
vector 91 small_network.switch1.phy[1].shaper.transmissionSelection qPcp4Bytes:floatingIntervalSumVector(packetBytes) ETV
vector 92 small_network.switch1.phy[1].shaper.transmissionSelection qPcp4Latency:vector ETV
attr interpolationmode none
attr title "End-to-end latency, vector"
attr unit s
vector 93 small_network.switch1.phy[1].shaper.transmissionSelection qPcp5Bytes:vector(packetBytes) ETV
attr interpolationmode none
attr title "Received Bytes, vector(packetBytes)"
attr unit B
vector 94 small_network.switch1.phy[1].shaper.transmissionSelection qPcp5Bytes:floatingIntervalSumVector(packetBytes) ETV
vector 95 small_network.switch1.phy[1].shaper.transmissionSelection qPcp5Latency:vector ETV
attr interpolationmode none
attr title "End-to-end latency, vector"
attr unit s
vector 96 small_network.switch1.phy[1].shaper.transmissionSelection qPcp6Bytes:vector(packetBytes) ETV
attr interpolationmode none
attr title "Received Bytes, vector(packetBytes)"
attr unit B
vector 97 small_network.switch1.phy[1].shaper.transmissionSelection qPcp6Bytes:floatingIntervalSumVector(packetBytes) ETV
vector 98 small_network.switch1.phy[1].shaper.transmissionSelection qPcp6Latency:vector ETV
attr interpolationmode none
attr title "End-to-end latency, vector"
attr unit s
vector 99 small_network.switch1.phy[1].shaper.transmissionSelection qPcp7Bytes:vector(packetBytes) ETV
attr interpolationmode none
attr title "Received Bytes, vector(packetBytes)"
attr unit B
vector 100 small_network.switch1.phy[1].shaper.transmissionSelection qPcp7Bytes:floatingIntervalSumVector(packetBytes) ETV
vector 101 small_network.switch1.phy[1].shaper.transmissionSelection qPcp7Latency:vector ETV
attr interpolationmode none
attr title "End-to-end latency, vector"
attr unit s
vector 102 small_network.switch1.phy[2].shaper.transmissionSelection qPcp0Bytes:vector(packetBytes) ETV
attr interpolationmode none
attr title "Received Bytes, vector(packetBytes)"
attr unit B
vector 103 small_network.switch1.phy[2].shaper.transmissionSelection qPcp0Bytes:floatingIntervalSumVector(packetBytes) ETV
vector 104 small_network.switch1.phy[2].shaper.transmissionSelection qPcp0Latency:vector ETV
attr interpolationmode none
attr title "End-to-end latency, vector"
attr unit s
vector 105 small_network.switch1.phy[2].shaper.transmissionSelection qPcp1Bytes:vector(packetBytes) ETV
attr interpolationmode none
attr title "Received Bytes, vector(packetBytes)"
attr unit B
vector 106 small_network.switch1.phy[2].shaper.transmissionSelection qPcp1Bytes:floatingIntervalSumVector(packetBytes) ETV
vector 107 small_network.switch1.phy[2].shaper.transmissionSelection qPcp1Latency:vector ETV
attr interpolationmode none
attr title "End-to-end latency, vector"
attr unit s
vector 108 small_network.switch1.phy[2].shaper.transmissionSelection qPcp2Bytes:vector(packetBytes) ETV
attr interpolationmode none
attr title "Received Bytes, vector(packetBytes)"
attr unit B
vector 109 small_network.switch1.phy[2].shaper.transmissionSelection qPcp2Bytes:floatingIntervalSumVector(packetBytes) ETV
vector 110 small_network.switch1.phy[2].shaper.transmissionSelection qPcp2Latency:vector ETV
attr interpolationmode none
attr title "End-to-end latency, vector"
attr unit s
vector 111 small_network.switch1.phy[2].shaper.transmissionSelection qPcp3Bytes:vector(packetBytes) ETV
attr interpolationmode none
attr title "Received Bytes, vector(packetBytes)"
attr unit B
vector 112 small_network.switch1.phy[2].shaper.transmissionSelection qPcp3Bytes:floatingIntervalSumVector(packetBytes) ETV
vector 113 small_network.switch1.phy[2].shaper.transmissionSelection qPcp3Latency:vector ETV
attr interpolationmode none
attr title "End-to-end latency, vector"
attr unit s
vector 114 small_network.switch1.phy[2].shaper.transmissionSelection qPcp4Bytes:vector(packetBytes) ETV
attr interpolationmode none
attr title "Received Bytes, vector(packetBytes)"
attr unit B
vector 115 small_network.switch1.phy[2].shaper.transmissionSelection qPcp4Bytes:floatingIntervalSumVector(packetBytes) ETV
vector 116 small_network.switch1.phy[2].shaper.transmissionSelection qPcp4Latency:vector ETV
attr interpolationmode none
attr title "End-to-end latency, vector"
attr unit s
vector 117 small_network.switch1.phy[2].shaper.transmissionSelection qPcp5Bytes:vector(packetBytes) ETV
attr interpolationmode none
attr title "Received Bytes, vector(packetBytes)"
attr unit B
vector 118 small_network.switch1.phy[2].shaper.transmissionSelection qPcp5Bytes:floatingIntervalSumVector(packetBytes) ETV
vector 119 small_network.switch1.phy[2].shaper.transmissionSelection qPcp5Latency:vector ETV
attr interpolationmode none
attr title "End-to-end latency, vector"
attr unit s
vector 120 small_network.switch1.phy[2].shaper.transmissionSelection qPcp6Bytes:vector(packetBytes) ETV
attr interpolationmode none
attr title "Received Bytes, vector(packetBytes)"
attr unit B
vector 121 small_network.switch1.phy[2].shaper.transmissionSelection qPcp6Bytes:floatingIntervalSumVector(packetBytes) ETV
vector 122 small_network.switch1.phy[2].shaper.transmissionSelection qPcp6Latency:vector ETV
attr interpolationmode none
attr title "End-to-end latency, vector"
attr unit s
vector 123 small_network.switch1.phy[2].shaper.transmissionSelection qPcp7Bytes:vector(packetBytes) ETV
attr interpolationmode none
attr title "Received Bytes, vector(packetBytes)"
attr unit B
vector 124 small_network.switch1.phy[2].shaper.transmissionSelection qPcp7Bytes:floatingIntervalSumVector(packetBytes) ETV
vector 125 small_network.switch1.phy[2].shaper.transmissionSelection qPcp7Latency:vector ETV
attr interpolationmode none
attr title "End-to-end latency, vector"
attr unit s
vector 126 small_network.node3.phy[0].shaper.transmissionSelection qPcp0Bytes:vector(packetBytes) ETV
attr interpolationmode none
attr title "Received Bytes, vector(packetBytes)"
attr unit B
vector 127 small_network.node3.phy[0].shaper.transmissionSelection qPcp0Bytes:floatingIntervalSumVector(packetBytes) ETV
vector 128 small_network.node3.phy[0].shaper.transmissionSelection qPcp0Latency:vector ETV
attr interpolationmode none
attr title "End-to-end latency, vector"
attr unit s
vector 129 small_network.node3.phy[0].shaper.transmissionSelection qPcp1Bytes:vector(packetBytes) ETV
attr interpolationmode none
attr title "Received Bytes, vector(packetBytes)"
attr unit B
vector 130 small_network.node3.phy[0].shaper.transmissionSelection qPcp1Bytes:floatingIntervalSumVector(packetBytes) ETV
vector 131 small_network.node3.phy[0].shaper.transmissionSelection qPcp1Latency:vector ETV
attr interpolationmode none
attr title "End-to-end latency, vector"
attr unit s
vector 132 small_network.node3.phy[0].shaper.transmissionSelection qPcp2Bytes:vector(packetBytes) ETV
attr interpolationmode none
attr title "Received Bytes, vector(packetBytes)"
attr unit B
vector 133 small_network.node3.phy[0].shaper.transmissionSelection qPcp2Bytes:floatingIntervalSumVector(packetBytes) ETV
vector 134 small_network.node3.phy[0].shaper.transmissionSelection qPcp2Latency:vector ETV
attr interpolationmode none
attr title "End-to-end latency, vector"
attr unit s
vector 135 small_network.node3.phy[0].shaper.transmissionSelection qPcp3Bytes:vector(packetBytes) ETV
attr interpolationmode none
attr title "Received Bytes, vector(packetBytes)"
attr unit B
vector 136 small_network.node3.phy[0].shaper.transmissionSelection qPcp3Bytes:floatingIntervalSumVector(packetBytes) ETV
vector 137 small_network.node3.phy[0].shaper.transmissionSelection qPcp3Latency:vector ETV
attr interpolationmode none
attr title "End-to-end latency, vector"
attr unit s
vector 138 small_network.node3.phy[0].shaper.transmissionSelection qPcp4Bytes:vector(packetBytes) ETV
attr interpolationmode none
attr title "Received Bytes, vector(packetBytes)"
attr unit B
vector 139 small_network.node3.phy[0].shaper.transmissionSelection qPcp4Bytes:floatingIntervalSumVector(packetBytes) ETV
vector 140 small_network.node3.phy[0].shaper.transmissionSelection qPcp4Latency:vector ETV
attr interpolationmode none
attr title "End-to-end latency, vector"
attr unit s
vector 141 small_network.node3.phy[0].shaper.transmissionSelection qPcp5Bytes:vector(packetBytes) ETV
attr interpolationmode none
attr title "Received Bytes, vector(packetBytes)"
attr unit B
vector 142 small_network.node3.phy[0].shaper.transmissionSelection qPcp5Bytes:floatingIntervalSumVector(packetBytes) ETV
vector 143 small_network.node3.phy[0].shaper.transmissionSelection qPcp5Latency:vector ETV
attr interpolationmode none
attr title "End-to-end latency, vector"
attr unit s
vector 144 small_network.node3.phy[0].shaper.transmissionSelection qPcp6Bytes:vector(packetBytes) ETV
attr interpolationmode none
attr title "Received Bytes, vector(packetBytes)"
attr unit B
vector 145 small_network.node3.phy[0].shaper.transmissionSelection qPcp6Bytes:floatingIntervalSumVector(packetBytes) ETV
vector 146 small_network.node3.phy[0].shaper.transmissionSelection qPcp6Latency:vector ETV
attr interpolationmode none
attr title "End-to-end latency, vector"
attr unit s
vector 147 small_network.node3.phy[0].shaper.transmissionSelection qPcp7Bytes:vector(packetBytes) ETV
attr interpolationmode none
attr title "Received Bytes, vector(packetBytes)"
attr unit B
vector 148 small_network.node3.phy[0].shaper.transmissionSelection qPcp7Bytes:floatingIntervalSumVector(packetBytes) ETV
vector 149 small_network.node3.phy[0].shaper.transmissionSelection qPcp7Latency:vector ETV
attr interpolationmode none
attr title "End-to-end latency, vector"
attr unit s
vector 150 small_network.node1.app[0] payloadOverTime:vector ETV
attr interpolationmode linear
attr source payloadSignal
attr title "payload over time, vector"
attr unit B
vector 151 small_network.node1.app[0] sendIntervalOverTime:vector ETV
attr interpolationmode linear
attr source intervalSignal
attr title "send interval over time, vector"
attr unit s
vector 152 small_network.node1.app[1] payloadOverTime:vector ETV
attr interpolationmode linear
attr source payloadSignal
attr title "payload over time, vector"
attr unit B
vector 153 small_network.node1.app[2] payloadOverTime:vector ETV
attr interpolationmode linear
attr source payloadSignal
attr title "payload over time, vector"
attr unit B
vector 154 small_network.node1.bgOut rxBytes:vector(packetBytes) ETV
attr interpolationmode none
attr source rxPk
attr title "Received Bytes, vector(packetBytes)"
attr unit B
vector 155 small_network.node1.bgOut rxLatency:vector ETV
attr interpolationmode none
attr source messageAge(rxPk)
attr title "End-to-end latency (received), vector"
attr unit s
vector 156 small_network.node1.bgOut length:vector ETV
attr interpolationmode sample-hold
attr source length
attr title "Queue Length, vector"
attr unit packets
vector 157 small_network.node1.bgOut size:vector ETV
attr interpolationmode sample-hold
attr source size
attr title "Queue Size, vector"
attr unit B
vector 158 small_network.node1.bgOut txBytes:vector(packetBytes) ETV
attr interpolationmode none
attr source txPk
attr title "Transmitted Bytes, vector(packetBytes)"
attr unit B
vector 159 small_network.node1.bgOut txLatency:vector ETV
attr interpolationmode none
attr source messageAge(txPk)
attr title "End-to-end latency (transmitted), vector"
attr unit s
vector 160 small_network.node1.phy[0].shaper.queue[0] rxBytes:vector(packetBytes) ETV
attr interpolationmode none
attr source rxPk
attr title "Received Bytes, vector(packetBytes)"
attr unit B
vector 161 small_network.node1.phy[0].shaper.queue[0] rxLatency:vector ETV
attr interpolationmode none
attr source messageAge(rxPk)
attr title "End-to-end latency (received), vector"
attr unit s
vector 162 small_network.node1.phy[0].shaper.queue[0] length:vector ETV
attr interpolationmode sample-hold
attr source length
attr title "Queue Length, vector"
attr unit packets
vector 163 small_network.node1.phy[0].shaper.queue[0] size:vector ETV
attr interpolationmode sample-hold
attr source size
attr title "Queue Size, vector"
attr unit B
vector 164 small_network.node1.phy[0].mac rxPkFromHL:vector(packetBytes) ETV
attr interpolationmode none
attr source rxPkFromHL
attr title "packet bytes from higher layer, vector(packetBytes)"
vector 165 small_network.node1.phy[0].shaper.queue[7] rxBytes:vector(packetBytes) ETV
attr interpolationmode none
attr source rxPk
attr title "Received Bytes, vector(packetBytes)"
attr unit B
vector 166 small_network.node1.phy[0].shaper.queue[7] rxLatency:vector ETV
attr interpolationmode none
attr source messageAge(rxPk)
attr title "End-to-end latency (received), vector"
attr unit s
vector 167 small_network.node1.phy[0].shaper.queue[7] length:vector ETV
attr interpolationmode sample-hold
attr source length
attr title "Queue Length, vector"
attr unit packets
vector 168 small_network.node1.phy[0].shaper.queue[7] size:vector ETV
attr interpolationmode sample-hold
attr source size
attr title "Queue Size, vector"
attr unit B
vector 169 small_network.node1.phy[0].shaper.queue[5] rxBytes:vector(packetBytes) ETV
attr interpolationmode none
attr source rxPk
attr title "Received Bytes, vector(packetBytes)"
attr unit B
vector 170 small_network.node1.phy[0].shaper.queue[5] rxLatency:vector ETV
attr interpolationmode none
attr source messageAge(rxPk)
attr title "End-to-end latency (received), vector"
attr unit s
vector 171 small_network.node1.phy[0].shaper.queue[5] length:vector ETV
attr interpolationmode sample-hold
attr source length
attr title "Queue Length, vector"
attr unit packets
vector 172 small_network.node1.phy[0].shaper.queue[5] size:vector ETV
attr interpolationmode sample-hold
attr source size
attr title "Queue Size, vector"
attr unit B
vector 173 small_network.node1.phy[0].mac txPk:vector(packetBytes) ETV
attr interpolationmode none
attr source txPk
attr title "packets transmitted, vector(packetBytes)"
vector 174 small_network.switch1.phy[0].mac rxPkOk:vector(packetBytes) ETV
attr interpolationmode none
attr source rxPkOk
attr title "packets received OK, vector(packetBytes)"
vector 175 small_network.switch1.phy[0].mac passedUpPk:vector(packetBytes) ETV
attr interpolationmode none
attr source packetSentToUpper
attr title "packets passed to higher layer, vector(packetBytes)"
vector 176 small_network.switch1.phy[0].inControl rxLatency:vector ETV
attr interpolationmode none
attr source messageAge(rxPk)
attr title "End-to-end latency (received), vector"
attr unit s
vector 177 small_network.switch1.phy[0].inControl bandwidthFloating:floatingIntervalSumVector(packetBytes) ETV
vector 178 small_network.switch1.phy[1].shaper.queue[0] rxBytes:vector(packetBytes) ETV
attr interpolationmode none
attr source rxPk
attr title "Received Bytes, vector(packetBytes)"
attr unit B
vector 179 small_network.switch1.phy[1].shaper.queue[0] rxLatency:vector ETV
attr interpolationmode none
attr source messageAge(rxPk)
attr title "End-to-end latency (received), vector"
attr unit s
vector 180 small_network.switch1.phy[1].shaper.queue[0] length:vector ETV
attr interpolationmode sample-hold
attr source length
attr title "Queue Length, vector"
attr unit packets
vector 181 small_network.switch1.phy[1].shaper.queue[0] size:vector ETV
attr interpolationmode sample-hold
attr source size
attr title "Queue Size, vector"
attr unit B
vector 182 small_network.switch1.phy[2].shaper.queue[0] rxBytes:vector(packetBytes) ETV
attr interpolationmode none
attr source rxPk
attr title "Received Bytes, vector(packetBytes)"
attr unit B
vector 183 small_network.switch1.phy[2].shaper.queue[0] rxLatency:vector ETV
attr interpolationmode none
attr source messageAge(rxPk)
attr title "End-to-end latency (received), vector"
attr unit s
vector 184 small_network.switch1.phy[2].shaper.queue[0] length:vector ETV
attr interpolationmode sample-hold
attr source length
attr title "Queue Length, vector"
attr unit packets
vector 185 small_network.switch1.phy[2].shaper.queue[0] size:vector ETV
attr interpolationmode sample-hold
attr source size
attr title "Queue Size, vector"
attr unit B
vector 186 small_network.switch1.phy[1].mac rxPkFromHL:vector(packetBytes) ETV
attr interpolationmode none
attr source rxPkFromHL
attr title "packet bytes from higher layer, vector(packetBytes)"
vector 187 small_network.switch1.phy[2].mac rxPkFromHL:vector(packetBytes) ETV
attr interpolationmode none
attr source rxPkFromHL
attr title "packet bytes from higher layer, vector(packetBytes)"
vector 188 small_network.switch1.phy[1].mac txPk:vector(packetBytes) ETV
attr interpolationmode none
attr source txPk
attr title "packets transmitted, vector(packetBytes)"
vector 189 small_network.switch1.phy[2].mac txPk:vector(packetBytes) ETV
attr interpolationmode none
attr source txPk
attr title "packets transmitted, vector(packetBytes)"
vector 190 small_network.node2.phy[0].mac rxPkOk:vector(packetBytes) ETV
attr interpolationmode none
attr source rxPkOk
attr title "packets received OK, vector(packetBytes)"
vector 191 small_network.node2.phy[0].mac passedUpPk:vector(packetBytes) ETV
attr interpolationmode none
attr source packetSentToUpper
attr title "packets passed to higher layer, vector(packetBytes)"
vector 192 small_network.node3.phy[0].mac rxPkOk:vector(packetBytes) ETV
attr interpolationmode none
attr source rxPkOk
attr title "packets received OK, vector(packetBytes)"
vector 193 small_network.node3.phy[0].mac passedUpPk:vector(packetBytes) ETV
attr interpolationmode none
attr source packetSentToUpper
attr title "packets passed to higher layer, vector(packetBytes)"
vector 194 small_network.node2.phy[0].inControl rxLatency:vector ETV
attr interpolationmode none
attr source messageAge(rxPk)
attr title "End-to-end latency (received), vector"
attr unit s
vector 195 small_network.node2.phy[0].inControl bandwidthFloating:floatingIntervalSumVector(packetBytes) ETV
vector 196 small_network.node3.phy[0].inControl rxLatency:vector ETV
attr interpolationmode none
attr source messageAge(rxPk)
attr title "End-to-end latency (received), vector"
attr unit s
vector 197 small_network.node3.phy[0].inControl bandwidthFloating:floatingIntervalSumVector(packetBytes) ETV
vector 198 small_network.node2.bgIn rxBytes:vector(packetBytes) ETV
attr interpolationmode none
attr source rxPk
attr title "Received Bytes, vector(packetBytes)"
attr unit B
vector 199 small_network.node2.bgIn rxLatency:vector ETV
attr interpolationmode none
attr source messageAge(rxPk)
attr title "End-to-end latency (received), vector"
attr unit s
vector 200 small_network.node2.bgIn length:vector ETV
attr interpolationmode sample-hold
attr source length
attr title "Queue Length, vector"
attr unit packets
vector 201 small_network.node2.bgIn size:vector ETV
attr interpolationmode sample-hold
attr source size
attr title "Queue Size, vector"
attr unit B
vector 202 small_network.node2.bgIn txBytes:vector(packetBytes) ETV
attr interpolationmode none
attr source txPk
attr title "Transmitted Bytes, vector(packetBytes)"
attr unit B
vector 203 small_network.node2.bgIn txLatency:vector ETV
attr interpolationmode none
attr source messageAge(txPk)
attr title "End-to-end latency (transmitted), vector"
attr unit s
vector 204 small_network.node2.app[0] rxBytes:vector(packetBytes) ETV
attr interpolationmode none
attr source rxPk
attr title "Received Bytes, vector(packetBytes)"
attr unit B
vector 205 small_network.node2.app[0] rxBytes:floatingIntervalSumVector(packetBytes) ETV
vector 206 small_network.node2.app[0] rxLatency:vector ETV
attr interpolationmode none
attr source messageAge(rxPk)
attr title "End-to-end latency, vector"
attr unit s
vector 207 small_network.node2.app[0] rxLatencyInner:vector ETV
attr interpolationmode none
attr source messageAge(innerMessage(rxPk))
attr title "End-to-end latency inner, vector"
attr unit s
vector 208 small_network.node2.bgOut rxBytes:vector(packetBytes) ETV
attr interpolationmode none
attr source rxPk
attr title "Received Bytes, vector(packetBytes)"
attr unit B
vector 209 small_network.node2.bgOut rxLatency:vector ETV
attr interpolationmode none
attr source messageAge(rxPk)
attr title "End-to-end latency (received), vector"
attr unit s
vector 210 small_network.node2.bgOut length:vector ETV
attr interpolationmode sample-hold
attr source length
attr title "Queue Length, vector"
attr unit packets
vector 211 small_network.node2.bgOut size:vector ETV
attr interpolationmode sample-hold
attr source size
attr title "Queue Size, vector"
attr unit B
vector 212 small_network.node2.bgOut txBytes:vector(packetBytes) ETV
attr interpolationmode none
attr source txPk
attr title "Transmitted Bytes, vector(packetBytes)"
attr unit B
vector 213 small_network.node2.bgOut txLatency:vector ETV
attr interpolationmode none
attr source messageAge(txPk)
attr title "End-to-end latency (transmitted), vector"
attr unit s
vector 214 small_network.node2.phy[0].shaper.queue[0] rxBytes:vector(packetBytes) ETV
attr interpolationmode none
attr source rxPk
attr title "Received Bytes, vector(packetBytes)"
attr unit B
vector 215 small_network.node2.phy[0].shaper.queue[0] rxLatency:vector ETV
attr interpolationmode none
attr source messageAge(rxPk)
attr title "End-to-end latency (received), vector"
attr unit s
vector 216 small_network.node2.phy[0].shaper.queue[0] length:vector ETV
attr interpolationmode sample-hold
attr source length
attr title "Queue Length, vector"
attr unit packets
vector 217 small_network.node2.phy[0].shaper.queue[0] size:vector ETV
attr interpolationmode sample-hold
attr source size
attr title "Queue Size, vector"
attr unit B
vector 218 small_network.node2.phy[0].mac rxPkFromHL:vector(packetBytes) ETV
attr interpolationmode none
attr source rxPkFromHL
attr title "packet bytes from higher layer, vector(packetBytes)"
vector 219 small_network.switch1.phy[1].shaper.transmissionSelectionAlgorithm[6] credit:vector ETV
attr "" ""
attr interpolationmode linear
attr source credit
attr title "Credit, vector"
attr unit b
vector 220 small_network.switch1.phy[2].shaper.transmissionSelectionAlgorithm[6] credit:vector ETV
attr "" ""
attr interpolationmode linear
attr source credit
attr title "Credit, vector"
attr unit b
vector 221 small_network.switch1.phy[1].shaper.queue[7] rxBytes:vector(packetBytes) ETV
attr interpolationmode none
attr source rxPk
attr title "Received Bytes, vector(packetBytes)"
attr unit B
vector 222 small_network.switch1.phy[1].shaper.queue[7] rxLatency:vector ETV
attr interpolationmode none
attr source messageAge(rxPk)
attr title "End-to-end latency (received), vector"
attr unit s
vector 223 small_network.switch1.phy[1].shaper.queue[7] length:vector ETV
attr interpolationmode sample-hold
attr source length
attr title "Queue Length, vector"
attr unit packets
vector 224 small_network.switch1.phy[1].shaper.queue[7] size:vector ETV
attr interpolationmode sample-hold
attr source size
attr title "Queue Size, vector"
attr unit B
vector 225 small_network.switch1.phy[2].shaper.queue[7] rxBytes:vector(packetBytes) ETV
attr interpolationmode none
attr source rxPk
attr title "Received Bytes, vector(packetBytes)"
attr unit B
vector 226 small_network.switch1.phy[2].shaper.queue[7] rxLatency:vector ETV
attr interpolationmode none
attr source messageAge(rxPk)
attr title "End-to-end latency (received), vector"
attr unit s
vector 227 small_network.switch1.phy[2].shaper.queue[7] length:vector ETV
attr interpolationmode sample-hold
attr source length
attr title "Queue Length, vector"
attr unit packets
vector 228 small_network.switch1.phy[2].shaper.queue[7] size:vector ETV
attr interpolationmode sample-hold
attr source size
attr title "Queue Size, vector"
attr unit B
vector 229 small_network.node2.phy[0].mac txPk:vector(packetBytes) ETV
attr interpolationmode none
attr source txPk
attr title "packets transmitted, vector(packetBytes)"
vector 230 small_network.switch1.phy[1].mac rxPkOk:vector(packetBytes) ETV
attr interpolationmode none
attr source rxPkOk
attr title "packets received OK, vector(packetBytes)"
vector 231 small_network.switch1.phy[1].mac passedUpPk:vector(packetBytes) ETV
attr interpolationmode none
attr source packetSentToUpper
attr title "packets passed to higher layer, vector(packetBytes)"
vector 232 small_network.switch1.phy[1].inControl rxLatency:vector ETV
attr interpolationmode none
attr source messageAge(rxPk)
attr title "End-to-end latency (received), vector"
attr unit s
vector 233 small_network.switch1.phy[1].inControl bandwidthFloating:floatingIntervalSumVector(packetBytes) ETV
vector 234 small_network.node3.bgIn rxBytes:vector(packetBytes) ETV
attr interpolationmode none
attr source rxPk
attr title "Received Bytes, vector(packetBytes)"
attr unit B
vector 235 small_network.node3.bgIn rxLatency:vector ETV
attr interpolationmode none
attr source messageAge(rxPk)
attr title "End-to-end latency (received), vector"
attr unit s
vector 236 small_network.node3.bgIn length:vector ETV
attr interpolationmode sample-hold
attr source length
attr title "Queue Length, vector"
attr unit packets
vector 237 small_network.node3.bgIn size:vector ETV
attr interpolationmode sample-hold
attr source size
attr title "Queue Size, vector"
attr unit B
vector 238 small_network.node3.bgIn txBytes:vector(packetBytes) ETV
attr interpolationmode none
attr source txPk
attr title "Transmitted Bytes, vector(packetBytes)"
attr unit B
vector 239 small_network.node3.bgIn txLatency:vector ETV
attr interpolationmode none
attr source messageAge(txPk)
attr title "End-to-end latency (transmitted), vector"
attr unit s
vector 240 small_network.node3.app[0] rxBytesQ7:vector(packetBytes) ETV
attr interpolationmode none
attr source rxPkQ7
attr title "Received Bytes, vector(packetBytes)"
attr unit B
vector 241 small_network.node3.app[0] rxBytesQ7:floatingIntervalSumVector(packetBytes) ETV
vector 242 small_network.node3.app[0] rxLatencyQ7:vector ETV
attr interpolationmode none
attr source messageAge(rxPkQ7)
attr title "End-to-end latency, vector"
attr unit s
vector 243 small_network.node3.app[0] rxLatencyInnerQ7:vector ETV
attr interpolationmode none
attr source messageAge(innerMessage(rxPkQ7))
attr title "End-to-end latency inner, vector"
attr unit s
vector 244 small_network.node3.app[0] rxBytes:vector(packetBytes) ETV
attr interpolationmode none
attr source rxPk
attr title "Received Bytes, vector(packetBytes)"
attr unit B
vector 245 small_network.node3.app[0] rxBytes:floatingIntervalSumVector(packetBytes) ETV
vector 246 small_network.node3.app[0] rxLatency:vector ETV
attr interpolationmode none
attr source messageAge(rxPk)
attr title "End-to-end latency, vector"
attr unit s
vector 247 small_network.node3.app[0] rxLatencyInner:vector ETV
attr interpolationmode none
attr source messageAge(innerMessage(rxPk))
attr title "End-to-end latency inner, vector"
attr unit s
vector 248 small_network.node3.bgOut rxBytes:vector(packetBytes) ETV
attr interpolationmode none
attr source rxPk
attr title "Received Bytes, vector(packetBytes)"
attr unit B
vector 249 small_network.node3.bgOut rxLatency:vector ETV
attr interpolationmode none
attr source messageAge(rxPk)
attr title "End-to-end latency (received), vector"
attr unit s
vector 250 small_network.node3.bgOut length:vector ETV
attr interpolationmode sample-hold
attr source length
attr title "Queue Length, vector"
attr unit packets
vector 251 small_network.node3.bgOut size:vector ETV
attr interpolationmode sample-hold
attr source size
attr title "Queue Size, vector"
attr unit B
vector 252 small_network.node3.bgOut txBytes:vector(packetBytes) ETV
attr interpolationmode none
attr source txPk
attr title "Transmitted Bytes, vector(packetBytes)"
attr unit B
vector 253 small_network.node3.bgOut txLatency:vector ETV
attr interpolationmode none
attr source messageAge(txPk)
attr title "End-to-end latency (transmitted), vector"
attr unit s
vector 254 small_network.node3.phy[0].shaper.queue[0] rxBytes:vector(packetBytes) ETV
attr interpolationmode none
attr source rxPk
attr title "Received Bytes, vector(packetBytes)"
attr unit B
vector 255 small_network.node3.phy[0].shaper.queue[0] rxLatency:vector ETV
attr interpolationmode none
attr source messageAge(rxPk)
attr title "End-to-end latency (received), vector"
attr unit s
vector 256 small_network.node3.phy[0].shaper.queue[0] length:vector ETV
attr interpolationmode sample-hold
attr source length
attr title "Queue Length, vector"
attr unit packets
vector 257 small_network.node3.phy[0].shaper.queue[0] size:vector ETV
attr interpolationmode sample-hold
attr source size
attr title "Queue Size, vector"
attr unit B
vector 258 small_network.node3.phy[0].mac rxPkFromHL:vector(packetBytes) ETV
attr interpolationmode none
attr source rxPkFromHL
attr title "packet bytes from higher layer, vector(packetBytes)"
vector 259 small_network.switch1.phy[1].shaper.queue[5] rxBytes:vector(packetBytes) ETV
attr interpolationmode none
attr source rxPk
attr title "Received Bytes, vector(packetBytes)"
attr unit B
vector 260 small_network.switch1.phy[1].shaper.queue[5] rxLatency:vector ETV
attr interpolationmode none
attr source messageAge(rxPk)
attr title "End-to-end latency (received), vector"
attr unit s
vector 261 small_network.switch1.phy[1].shaper.queue[5] length:vector ETV
attr interpolationmode sample-hold
attr source length
attr title "Queue Length, vector"
attr unit packets
vector 262 small_network.switch1.phy[1].shaper.queue[5] size:vector ETV
attr interpolationmode sample-hold
attr source size
attr title "Queue Size, vector"
attr unit B
vector 263 small_network.switch1.phy[2].shaper.queue[5] rxBytes:vector(packetBytes) ETV
attr interpolationmode none
attr source rxPk
attr title "Received Bytes, vector(packetBytes)"
attr unit B
vector 264 small_network.switch1.phy[2].shaper.queue[5] rxLatency:vector ETV
attr interpolationmode none
attr source messageAge(rxPk)
attr title "End-to-end latency (received), vector"
attr unit s
vector 265 small_network.switch1.phy[2].shaper.queue[5] length:vector ETV
attr interpolationmode sample-hold
attr source length
attr title "Queue Length, vector"
attr unit packets
vector 266 small_network.switch1.phy[2].shaper.queue[5] size:vector ETV
attr interpolationmode sample-hold
attr source size
attr title "Queue Size, vector"
attr unit B
vector 267 small_network.node3.phy[0].mac txPk:vector(packetBytes) ETV
attr interpolationmode none
attr source txPk
attr title "packets transmitted, vector(packetBytes)"
vector 268 small_network.switch1.phy[2].mac rxPkOk:vector(packetBytes) ETV
attr interpolationmode none
attr source rxPkOk
attr title "packets received OK, vector(packetBytes)"
vector 269 small_network.switch1.phy[2].mac passedUpPk:vector(packetBytes) ETV
attr interpolationmode none
attr source packetSentToUpper
attr title "packets passed to higher layer, vector(packetBytes)"
vector 270 small_network.switch1.phy[2].inControl rxLatency:vector ETV
attr interpolationmode none
attr source messageAge(rxPk)
attr title "End-to-end latency (received), vector"
attr unit s
vector 271 small_network.switch1.phy[2].inControl bandwidthFloating:floatingIntervalSumVector(packetBytes) ETV
vector 272 small_network.switch1.phy[0].shaper.queue[0] rxBytes:vector(packetBytes) ETV
attr interpolationmode none
attr source rxPk
attr title "Received Bytes, vector(packetBytes)"
attr unit B
vector 273 small_network.switch1.phy[0].shaper.queue[0] rxLatency:vector ETV
attr interpolationmode none
attr source messageAge(rxPk)
attr title "End-to-end latency (received), vector"
attr unit s
vector 274 small_network.switch1.phy[0].shaper.queue[0] length:vector ETV
attr interpolationmode sample-hold
attr source length
attr title "Queue Length, vector"
attr unit packets
vector 275 small_network.switch1.phy[0].shaper.queue[0] size:vector ETV
attr interpolationmode sample-hold
attr source size
attr title "Queue Size, vector"
attr unit B
vector 276 small_network.switch1.phy[0].mac rxPkFromHL:vector(packetBytes) ETV
attr interpolationmode none
attr source rxPkFromHL
attr title "packet bytes from higher layer, vector(packetBytes)"
vector 277 small_network.switch1.phy[0].mac txPk:vector(packetBytes) ETV
attr interpolationmode none
attr source txPk
attr title "packets transmitted, vector(packetBytes)"
vector 278 small_network.node1.phy[0].mac rxPkOk:vector(packetBytes) ETV
attr interpolationmode none
attr source rxPkOk
attr title "packets received OK, vector(packetBytes)"
vector 279 small_network.node1.phy[0].mac passedUpPk:vector(packetBytes) ETV
attr interpolationmode none
attr source packetSentToUpper
attr title "packets passed to higher layer, vector(packetBytes)"
vector 280 small_network.node1.phy[0].inControl rxLatency:vector ETV
attr interpolationmode none
attr source messageAge(rxPk)
attr title "End-to-end latency (received), vector"
attr unit s
vector 281 small_network.node1.phy[0].inControl bandwidthFloating:floatingIntervalSumVector(packetBytes) ETV
vector 282 small_network.node1.bgIn rxBytes:vector(packetBytes) ETV
attr interpolationmode none
attr source rxPk
attr title "Received Bytes, vector(packetBytes)"
attr unit B
vector 283 small_network.node1.bgIn rxLatency:vector ETV
attr interpolationmode none
attr source messageAge(rxPk)
attr title "End-to-end latency (received), vector"
attr unit s
vector 284 small_network.node1.bgIn length:vector ETV
attr interpolationmode sample-hold
attr source length
attr title "Queue Length, vector"
attr unit packets
vector 285 small_network.node1.bgIn size:vector ETV
attr interpolationmode sample-hold
attr source size
attr title "Queue Size, vector"
attr unit B
vector 286 small_network.switch1.phy[0].shaper.transmissionSelectionAlgorithm[6] credit:vector ETV
attr "" ""
attr interpolationmode linear
attr source credit
attr title "Credit, vector"
attr unit b
vector 287 small_network.node3.app[0] rxBytesQ5:vector(packetBytes) ETV
attr interpolationmode none
attr source rxPkQ5
attr title "Received Bytes, vector(packetBytes)"
attr unit B
vector 288 small_network.node3.app[0] rxBytesQ5:floatingIntervalSumVector(packetBytes) ETV
vector 289 small_network.node3.app[0] rxLatencyQ5:vector ETV
attr interpolationmode none
attr source messageAge(rxPkQ5)
attr title "End-to-end latency, vector"
attr unit s
vector 290 small_network.node3.app[0] rxLatencyInnerQ5:vector ETV
attr interpolationmode none
attr source messageAge(innerMessage(rxPkQ5))
attr title "End-to-end latency inner, vector"
attr unit s
vector 291 small_network.node1.scheduler.period[0] newCycle:vector ETV
attr interpolationmode none
attr title "Start of cycle, vector"
vector 292 small_network.node1.scheduler.oscillator currentDrift:vector ETV
attr title "Current drift, vector"
attr unit s
vector 293 small_network.node1.scheduler.timer clockCorrection:vector ETV
attr title "Clock correction, vector"
attr unit tick
vector 294 small_network.node2.scheduler.period[0] newCycle:vector ETV
attr interpolationmode none
attr title "Start of cycle, vector"
vector 295 small_network.node2.scheduler.oscillator currentDrift:vector ETV
attr title "Current drift, vector"
attr unit s
vector 296 small_network.node2.scheduler.timer clockCorrection:vector ETV
attr title "Clock correction, vector"
attr unit tick
vector 297 small_network.node3.scheduler.period[0] newCycle:vector ETV
attr interpolationmode none
attr title "Start of cycle, vector"
vector 298 small_network.node3.scheduler.oscillator currentDrift:vector ETV
attr title "Current drift, vector"
attr unit s
vector 299 small_network.node3.scheduler.timer clockCorrection:vector ETV
attr title "Clock correction, vector"
attr unit tick
vector 300 small_network.switch1.scheduler.period[0] newCycle:vector ETV
attr interpolationmode none
attr title "Start of cycle, vector"
vector 301 small_network.switch1.scheduler.oscillator currentDrift:vector ETV
attr title "Current drift, vector"
attr unit s
vector 302 small_network.switch1.scheduler.timer clockCorrection:vector ETV
attr title "Clock correction, vector"
attr unit tick
0	52749 377103 0 208256 0 0.06025 18078 0 1 9039 9039
1	429852 28 0 112 0 0.000009157 2 0 1 1 1
2	429880 71 0 179 0 0.0000184075 4 0 1 2 2
3	429951 285385 0 208241 0 0.0602485785 12054 0 1 6027 6027
4	715336 141873 0 208206 0 0.0602335785 6002 0 1 3001 3001
5	857209 28 0 141 0 0.000009829 2 0 1 1 1
6	857237 116629 0 208255 0 0.06025 6027 0 64 385664 24682496
7	973866 138994 0 208255 0 0.06025 6027 0 385600 1161812800 2.986881291264e+14
8	1112860 110603 0 208255 0 0.06025 6027 0 0 0 0
9	1223463 8 0 0 0 0 1 0 0 0 0
10	1223471 9 0 0 0 0 1 0 0 0 0
11	1223480 9 0 0 0 0 1 0 0 0 0
12	1223489 9 0 0 0 0 1 0 0 0 0
13	1223498 9 0 0 0 0 1 0 0 0 0
14	1223507 9 0 0 0 0 1 0 0 0 0
15	1223516 9 0 0 0 0 1 0 0 0 0
16	1223525 9 0 0 0 0 1 0 0 0 0
17	1223534 9 0 0 0 0 1 0 0 0 0
18	1223543 9 0 0 0 0 1 0 0 0 0
19	1223552 9 0 0 0 0 1 0 0 0 0
20	1223561 9 0 0 0 0 1 0 0 0 0
21	1223570 14759 0 208101 0 0.060201344 604 0 64 38592 2469888
22	1238329 16396 0 208101 0 0.060201344 604 0 38592 11654784 300102918144
23	1254725 18980 0 208101 0 0.060201344 604 0 1.344e-06 0.00081043200000001 1.089220608e-09
24	1273705 9 0 0 0 0 1 0 0 0 0
25	1273714 9 0 0 0 0 1 0 0 0 0
26	1273723 9 0 0 0 0 1 0 0 0 0
27	1273732 55352 0 208174 0 0.060225 2411 0 64 154240 9871360
28	1329084 63258 0 208174 0 0.060225 2411 0 154240 185936320 19123178639360
29	1392342 61377 0 208174 0 0.060225 2411 0 6.72e-07 0.00080975999999998 5.4415872000001e-10
30	1453719 31 0 111 0 0.000009157 2 0 64 64 4096
31	1453750 31 0 111 0 0.000009157 2 0 64 64 4096
32	1453781 30 0 111 0 0.000009157 2 0 0 0 0
33	1453811 9 0 0 0 0 1 0 0 0 0
34	1453820 9 0 0 0 0 1 0 0 0 0
35	1453829 9 0 0 0 0 1 0 0 0 0
36	1453838 9 0 0 0 0 1 0 0 0 0
37	1453847 9 0 0 0 0 1 0 0 0 0
38	1453856 9 0 0 0 0 1 0 0 0 0
39	1453865 9 0 0 0 0 1 0 0 0 0
40	1453874 9 0 0 0 0 1 0 0 0 0
41	1453883 9 0 0 0 0 1 0 0 0 0
42	1453892 9 0 0 0 0 1 0 0 0 0
43	1453901 9 0 0 0 0 1 0 0 0 0
44	1453910 9 0 0 0 0 1 0 0 0 0
45	1453919 9 0 0 0 0 1 0 0 0 0
46	1453928 9 0 0 0 0 1 0 0 0 0
47	1453937 9 0 0 0 0 1 0 0 0 0
48	1453946 9 0 0 0 0 1 0 0 0 0
49	1453955 9 0 0 0 0 1 0 0 0 0
50	1453964 9 0 0 0 0 1 0 0 0 0
51	1453973 9 0 0 0 0 1 0 0 0 0
52	1453982 9 0 0 0 0 1 0 0 0 0
53	1453991 9 0 0 0 0 1 0 0 0 0
54	1454000 55 0 178 0 0.0000184075 3 0 64 128 8192
55	1454055 56 0 178 0 0.0000184075 3 0 128 192 20480
56	1454111 71 0 178 0 0.0000184075 3 0 8.5785e-06 1.7157e-05 1.471813245e-10
57	1454182 9 0 0 0 0 1 0 0 0 0
58	1454191 9 0 0 0 0 1 0 0 0 0
59	1454200 9 0 0 0 0 1 0 0 0 0
60	1454209 9 0 0 0 0 1 0 0 0 0
61	1454218 9 0 0 0 0 1 0 0 0 0
62	1454227 9 0 0 0 0 1 0 0 0 0
63	1454236 9 0 0 0 0 1 0 0 0 0
64	1454245 9 0 0 0 0 1 0 0 0 0
65	1454254 9 0 0 0 0 1 0 0 0 0
66	1454263 9 0 0 0 0 1 0 0 0 0
67	1454272 9 0 0 0 0 1 0 0 0 0
68	1454281 9 0 0 0 0 1 0 0 0 0
69	1454290 9 0 0 0 0 1 0 0 0 0
70	1454299 9 0 0 0 0 1 0 0 0 0
71	1454308 9 0 0 0 0 1 0 0 0 0
72	1454317 9 0 0 0 0 1 0 0 0 0
73	1454326 9 0 0 0 0 1 0 0 0 0
74	1454335 9 0 0 0 0 1 0 0 0 0
75	1454344 9 0 0 0 0 1 0 0 0 0
76	1454353 9 0 0 0 0 1 0 0 0 0
77	1454362 9 0 0 0 0 1 0 0 0 0
78	1454371 154714 0 208240 0 0.0602485785 6026 0 64 385600 24678400
79	1609085 177080 0 208240 0 0.0602485785 6026 0 385600 1161812800 2.986881291264e+14
80	1786165 206588 0 208240 0 0.0602485785 6026 0 0.001000574924 0.69015003548206 0.00043545549687693
81	1992753 9 0 0 0 0 1 0 0 0 0
82	1992762 9 0 0 0 0 1 0 0 0 0
83	1992771 9 0 0 0 0 1 0 0 0 0
84	1992780 9 0 0 0 0 1 0 0 0 0
85	1992789 9 0 0 0 0 1 0 0 0 0
86	1992798 9 0 0 0 0 1 0 0 0 0
87	1992807 9 0 0 0 0 1 0 0 0 0
88	1992816 9 0 0 0 0 1 0 0 0 0
89	1992825 9 0 0 0 0 1 0 0 0 0
90	1992834 9 0 0 0 0 1 0 0 0 0
91	1992843 9 0 0 0 0 1 0 0 0 0
92	1992852 9 0 0 0 0 1 0 0 0 0
93	1992861 27 0 10216 0 0.003 2 0 64 64 4096
94	1992888 27 0 10216 0 0.003 2 0 64 64 4096
95	1992915 30 0 10216 0 0.003 2 0 0.003 0.003 9e-06
96	1992945 9 0 0 0 0 1 0 0 0 0
97	1992954 9 0 0 0 0 1 0 0 0 0
98	1992963 9 0 0 0 0 1 0 0 0 0
99	1992972 32 0 119 0 0.0000092505 2 0 64 64 4096
100	1993004 34 0 119 0 0.0000092505 2 0 64 64 4096
101	1993038 42 0 119 0 0.0000092505 2 0 9.2505e-06 9.2505e-06 8.557175025e-11
102	1993080 33 0 95 0 0.0000085785 2 0 64 64 4096
103	1993113 33 0 95 0 0.0000085785 2 0 64 64 4096
104	1993146 41 0 95 0 0.0000085785 2 0 8.5785e-06 8.5785e-06 7.359066225e-11
105	1993187 10 0 0 0 0 1 0 0 0 0
106	1993197 10 0 0 0 0 1 0 0 0 0
107	1993207 10 0 0 0 0 1 0 0 0 0
108	1993217 10 0 0 0 0 1 0 0 0 0
109	1993227 10 0 0 0 0 1 0 0 0 0
110	1993237 10 0 0 0 0 1 0 0 0 0
111	1993247 10 0 0 0 0 1 0 0 0 0
112	1993257 10 0 0 0 0 1 0 0 0 0
113	1993267 10 0 0 0 0 1 0 0 0 0
114	1993277 10 0 0 0 0 1 0 0 0 0
115	1993287 10 0 0 0 0 1 0 0 0 0
116	1993297 10 0 0 0 0 1 0 0 0 0
117	1993307 16139 0 202915 0 0.0589099225 591 0 64 37760 2416640
118	2009446 17737 0 202915 0 0.0589099225 591 0 37760 11158080 281124106240
119	2027183 22300 0 202915 0 0.0589099225 591 0 0.004000449924 0.956238399166 0.0025473133340844
120	2049483 10 0 0 0 0 1 0 0 0 0
121	2049493 10 0 0 0 0 1 0 0 0 0
122	2049503 10 0 0 0 0 1 0 0 0 0
123	2049513 63801 0 208205 0 0.0602335785 2411 0 64 154240 9871360
124	2113314 71707 0 208205 0 0.0602335785 2411 0 154240 185936320 19123178639360
125	2185021 83093 0 208205 0 0.0602335785 2411 0 9.857924e-06 0.021487831125999 1.9186412744865e-07
126	2268114 33 0 140 0 0.000009829 2 0 64 64 4096
127	2268147 33 0 140 0 0.000009829 2 0 64 64 4096
128	2268180 32 0 140 0 0.000009829 2 0 0 0 0
129	2268212 10 0 0 0 0 1 0 0 0 0
130	2268222 10 0 0 0 0 1 0 0 0 0
131	2268232 10 0 0 0 0 1 0 0 0 0
132	2268242 10 0 0 0 0 1 0 0 0 0
133	2268252 10 0 0 0 0 1 0 0 0 0
134	2268262 10 0 0 0 0 1 0 0 0 0
135	2268272 10 0 0 0 0 1 0 0 0 0
136	2268282 10 0 0 0 0 1 0 0 0 0
137	2268292 10 0 0 0 0 1 0 0 0 0
138	2268302 10 0 0 0 0 1 0 0 0 0
139	2268312 10 0 0 0 0 1 0 0 0 0
140	2268322 10 0 0 0 0 1 0 0 0 0
141	2268332 10 0 0 0 0 1 0 0 0 0
142	2268342 10 0 0 0 0 1 0 0 0 0
143	2268352 10 0 0 0 0 1 0 0 0 0
144	2268362 10 0 0 0 0 1 0 0 0 0
145	2268372 10 0 0 0 0 1 0 0 0 0
146	2268382 10 0 0 0 0 1 0 0 0 0
147	2268392 10 0 0 0 0 1 0 0 0 0
148	2268402 10 0 0 0 0 1 0 0 0 0
149	2268412 10 0 0 0 0 1 0 0 0 0
150	2268422 128672 2 208250 0 0.06025 6026 18 18 108468 1952424
151	2397094 146750 2 208250 0 0.06025 6026 1e-05 1e-05 0.060260000000008 6.0260000000003e-07
152	2543844 12266 3 208074 0 0.0602 603 18 18 10854 195372
153	2556110 52280 4 208249 0 0.06025 2411 18 18 43398 781164
154	2608390 193221 57 208257 0 0.06025 9040 64 64 578560 37027840
155	2801611 184181 57 208257 0 0.06025 9040 0 0 0 0
156	2985792 368362 57 208257 0 0.06025 18080 0 1 9040 9040
157	3354154 377402 57 208257 0 0.06025 18080 0 64 578560 37027840
158	3731556 193221 57 208257 0 0.06025 9040 64 64 578560 37027840
159	3924777 184181 57 208257 0 0.06025 9040 0 0 0 0
160	4108958 128673 60 208254 0 0.06025 6026 64 64 385664 24682496
161	4237631 122647 60 208254 0 0.06025 6026 0 0 0 0
162	4360278 245294 60 208254 0 0.06025 12052 0 1 6026 6026
163	4605572 251320 60 208254 0 0.06025 12052 0 64 385664 24682496
164	4856892 201779 62 208256 0 0.06025 9039 64 64 578496 37023744
165	5058671 52281 66 208260 0 0.06025 2411 64 64 154304 9875456
166	5110952 49870 66 208260 0 0.06025 2411 0 0 0 0
167	5160822 105213 66 208260 0 0.06025 4821 0 1 2411 2411
168	5266035 107624 66 208260 0 0.06025 4821 0 64 154304 9875456
169	5373659 12267 70 208090 0 0.0602 603 64 64 38592 2469888
170	5385926 11664 70 208090 0 0.0602 603 0 0 0 0
171	5397590 26414 70 208100 0 0.060201344 1206 0 1 603 603
172	5424004 27017 70 208100 0 0.060201344 1206 0 64 38592 2469888
173	5451021 229569 71 208261 0.000000576 0.060250576 9039 64 64 578496 37023744
174	5680590 239211 72 208262 0.0000005785 0.0602505785 9039 64 64 578496 37023744
175	5919801 239184 72 208234 0.0000005785 0.0602405785 9038 64 64 578432 37019648
176	6158985 304258 73 208235 0.0000005785 0.0602405785 9038 5.785e-07 1.9225e-06 0.0068486749999998 6.5326188874995e-09
177	6463243 273602 73 208235 0.0000005785 0.0602405785 9038 64 578432 2614223424 1.0081560924938e+15
178	6736845 159452 92 208239 0.0000085785 0.0602485785 6025 64 64 385600 24678400
179	6896297 207652 92 208239 0.0000085785 0.0602485785 6025 8.5785e-06 8.5785e-06 0.051685462500002 4.4338374005622e-07
180	7103949 310460 92 208239 0.0000085785 0.0602485785 12050 0 100 132447 8488385
181	7414409 320133 92 208239 0.0000085785 0.0602485785 12050 0 6400 8476608 34768424960
182	7734542 23 93 93 0.0000085785 0.0000085785 1 64 64 64 4096
183	7734565 31 93 93 0.0000085785 0.0000085785 1 8.5785e-06 8.5785e-06 8.5785e-06 7.359066225e-11
184	7734596 44 93 93 0.0000085785 0.0000085785 2 0 1 1 1
185	7734640 45 93 93 0.0000085785 0.0000085785 2 0 64 64 4096
186	7734685 160773 96 208241 0.0000085785 0.0602485785 6027 64 64 385728 24686592
187	7895458 79943 97 208206 0.0000085785 0.0602335785 3001 64 64 192064 12292096
188	7975401 160787 98 208242 0.0000091545 0.0602491545 6027 64 64 385728 24686592
189	8136188 79949 99 208207 0.0000091545 0.0602341545 3001 64 64 192064 12292096
190	8216137 156312 100 208243 0.000009157 0.060249157 6027 64 64 385728 24686592
191	8372449 156312 100 208243 0.000009157 0.060249157 6027 64 64 385728 24686592
192	8528761 77525 101 208208 0.000009157 0.060234157 3001 64 64 192064 12292096
193	8606286 77525 101 208208 0.000009157 0.060234157 3001 64 64 192064 12292096
194	8683811 203734 102 208244 0.000009157 0.060249157 6027 9.157e-06 0.0030005785 0.69664590548203 0.00044525958475198
195	8887545 178686 102 208244 0.000009157 0.060249157 6027 64 385728 1162584192 2.9898565193728e+14
196	9066231 100684 103 208209 0.000009157 0.060234157 3001 9.157e-06 0.004001028424 0.97947088729203 0.0025486375152978
197	9166915 87795 103 208209 0.000009157 0.060234157 3001 64 192064 288288064 36919322628096
198	9254710 156263 105 208246 0.000009157 0.060249157 6025 64 64 385600 24678400
199	9410973 203668 105 208246 0.000009157 0.060249157 6025 9.157e-06 0.001001153424 0.69363549798203 0.00043625601680807
200	9614641 300476 105 208246 0.000009157 0.060249157 12050 0 1 6025 6025
201	9915117 306501 105 208246 0.000009157 0.060249157 12050 0 64 385600 24678400
202	10221618 156263 105 208246 0.000009157 0.060249157 6025 64 64 385600 24678400
203	10377881 203668 105 208246 0.000009157 0.060249157 6025 9.157e-06 0.001001153424 0.69363549798203 0.00043625601680807
204	10581549 156263 106 208247 0.000009157 0.060249157 6025 64 64 385600 24678400
205	10737812 178629 106 208247 0.000009157 0.060249157 6025 64 385600 1161812800 2.986881291264e+14
206	10916441 203668 106 208247 0.000009157 0.060249157 6025 9.157e-06 0.001001153424 0.69363549798203 0.00043625601680807
207	11120109 203668 106 208247 0.000009157 0.060249157 6025 9.157e-06 0.001001153424 0.69363549798203 0.00043625601680807
208	11323777 23 107 107 0.000009157 0.000009157 1 36 36 36 1296
209	11323800 22 107 107 0.000009157 0.000009157 1 0 0 0 0
210	11323822 44 107 107 0.000009157 0.000009157 2 0 1 1 1
211	11323866 45 107 107 0.000009157 0.000009157 2 0 64 64 4096
212	11323911 23 107 107 0.000009157 0.000009157 1 64 64 64 4096
213	11323934 22 107 107 0.000009157 0.000009157 1 0 0 0 0
214	11323956 23 110 110 0.000009157 0.000009157 1 64 64 64 4096
215	11323979 22 110 110 0.000009157 0.000009157 1 0 0 0 0
216	11324001 44 110 110 0.000009157 0.000009157 2 0 1 1 1
217	11324045 45 110 110 0.000009157 0.000009157 2 0 64 64 4096
218	11324090 23 112 112 0.000009157 0.000009157 1 64 64 64 4096
219	11324113 154762 113 208248 0.0000092505 0.0602492505 6027 0 0 0 0
220	11478875 76952 114 208213 0.0000092505 0.0602342505 3001 0 0 0 0
221	11555827 24 117 117 0.0000092505 0.0000092505 1 64 64 64 4096
222	11555851 32 117 117 0.0000092505 0.0000092505 1 9.2505e-06 9.2505e-06 9.2505e-06 8.557175025e-11
223	11555883 46 117 117 0.0000092505 0.0000092505 2 0 1 1 1
224	11555929 47 117 117 0.0000092505 0.0000092505 2 0 64 64 4096
225	11555976 63779 118 208204 0.0000092505 0.0602335785 2410 64 64 154240 9871360
226	11619755 83059 118 208204 0.0000092505 0.0602335785 2410 8.5785e-06 9.2505e-06 0.021483944999999 1.917907070625e-07
227	11702814 122750 118 208204 0.0000092505 0.0602335785 4820 0 1 2410 2410
228	11825564 125160 118 208204 0.0000092505 0.0602335785 4820 0 64 154240 9871360
229	11950724 23 123 123 0.000009733 0.000009733 1 64 64 64 4096
230	11950747 24 124 124 0.0000097355 0.0000097355 1 64 64 64 4096
231	11950771 24 124 124 0.0000097355 0.0000097355 1 64 64 64 4096
232	11950795 31 125 125 0.0000097355 0.0000097355 1 5.785e-07 5.785e-07 5.785e-07 3.3466225e-13
233	11950826 24 125 125 0.0000097355 0.0000097355 1 64 64 64 4096
234	11950850 77502 134 208211 0.000009829 0.060234157 3000 64 64 192000 12288000
235	12028352 100654 134 208211 0.000009829 0.060234157 3000 9.157e-06 0.004001028424 0.97946173029203 0.0025486374314471
236	12129006 149004 134 208211 0.000009829 0.060234157 6000 0 1 3000 3000
237	12278010 152004 134 208211 0.000009829 0.060234157 6000 0 64 192000 12288000
238	12430014 77502 134 208211 0.000009829 0.060234157 3000 64 64 192000 12288000
239	12507516 100654 134 208211 0.000009829 0.060234157 3000 9.157e-06 0.004001028424 0.97946173029203 0.0025486374314471
240	12608170 61398 135 208212 0.000009829 0.060234157 2410 64 64 154240 9871360
241	12669568 69304 135 208212 0.000009829 0.060234157 2410 64 154240 185936320 19123178639360
242	12738872 78304 135 208212 0.000009829 0.060234157 2410 9.157e-06 1.0436424e-05 0.022882016125999 2.1753208408393e-07
243	12817176 78304 135 208212 0.000009829 0.060234157 2410 9.157e-06 1.0436424e-05 0.022882016125999 2.1753208408393e-07
244	12895480 77504 135 208212 0.000009829 0.060234157 3000 64 64 192000 12288000
245	12972984 87770 135 208212 0.000009829 0.060234157 3000 64 192000 288096000 36882434048000
246	13060754 100656 135 208212 0.000009829 0.060234157 3000 9.157e-06 0.004001028424 0.97946173029203 0.0025486374314471
247	13161410 100656 135 208212 0.000009829 0.060234157 3000 9.157e-06 0.004001028424 0.97946173029203 0.0025486374314471
248	13262066 23 136 136 0.000009829 0.000009829 1 36 36 36 1296
249	13262089 22 136 136 0.000009829 0.000009829 1 0 0 0 0
250	13262111 44 136 136 0.000009829 0.000009829 2 0 1 1 1
251	13262155 45 136 136 0.000009829 0.000009829 2 0 64 64 4096
252	13262200 23 136 136 0.000009829 0.000009829 1 64 64 64 4096
253	13262223 22 136 136 0.000009829 0.000009829 1 0 0 0 0
254	13262245 23 139 139 0.000009829 0.000009829 1 64 64 64 4096
255	13262268 22 139 139 0.000009829 0.000009829 1 0 0 0 0
256	13262290 44 139 139 0.000009829 0.000009829 2 0 1 1 1
257	13262334 45 139 139 0.000009829 0.000009829 2 0 64 64 4096
258	13262379 23 141 141 0.000009829 0.000009829 1 64 64 64 4096
259	13262402 24 146 146 0.0000099225 0.0000099225 1 64 64 64 4096
260	13262426 32 146 146 0.0000099225 0.0000099225 1 9.9225e-06 9.9225e-06 9.9225e-06 9.845600625e-11
261	13262458 41 146 10203 0.0000099225 0.003 2 0 1 1 1
262	13262499 42 146 10203 0.0000099225 0.003 2 0 64 64 4096
263	13262541 15957 147 208133 0.0000099225 0.0602099225 603 64 64 38592 2469888
264	13278498 20781 147 208133 0.0000099225 0.0602099225 603 9.9225e-06 9.9225e-06 0.0059832674999999 5.9368971768751e-08
265	13299279 31633 147 208133 0.0000099225 0.0602099225 1193 0 40 19315 504417
266	13330912 33498 147 208133 0.0000099225 0.0602099225 1193 0 2560 1236160 2066092032
267	13364410 23 155 155 0.000010405 0.000010405 1 64 64 64 4096
268	13364433 24 156 156 0.0000104075 0.0000104075 1 64 64 64 4096
269	13364457 24 156 156 0.0000104075 0.0000104075 1 64 64 64 4096
270	13364481 31 157 157 0.0000104075 0.0000104075 1 5.785e-07 5.785e-07 5.785e-07 3.3466225e-13
271	13364512 24 157 157 0.0000104075 0.0000104075 1 64 64 64 4096
272	13364536 48 167 177 0.0000177355 0.0000184075 2 64 64 128 8192
273	13364584 64 167 177 0.0000177355 0.0000184075 2 8.5785e-06 8.5785e-06 1.7157e-05 1.471813245e-10
274	13364648 92 167 177 0.0000177355 0.0000184075 4 0 1 2 2
275	13364740 94 167 177 0.0000177355 0.0000184075 4 0 64 128 8192
276	13364834 48 169 179 0.0000177355 0.0000184075 2 64 64 128 8192
277	13364882 48 170 184 0.0000183115 0.0000189835 2 64 64 128 8192
278	13364930 46 171 185 0.000018314 0.000018986 2 64 64 128 8192
279	13364976 46 171 185 0.000018314 0.000018986 2 64 64 128 8192
280	13365022 60 172 186 0.000018314 0.000018986 2 9.157e-06 9.157e-06 1.8314e-05 1.67701298e-10
281	13365082 47 172 186 0.000018314 0.000018986 2 64 128 192 20480
282	13365129 46 174 188 0.000018314 0.000018986 2 64 64 128 8192
283	13365175 60 174 188 0.000018314 0.000018986 2 9.157e-06 9.157e-06 1.8314e-05 1.67701298e-10
284	13365235 44 174 188 0.000018314 0.000018986 2 1 2 3 5
285	13365279 47 174 188 0.000018314 0.000018986 2 64 128 192 20480
286	13365326 46 176 189 0.0000184075 0.0000190795 2 0 0 0 0
287	13365372 16106 10234 202929 0.0030005785 0.058910501 590 64 64 37760 2416640
288	13381478 17704 10234 202929 0.0030005785 0.058910501 590 64 37760 11158080 281124106240
289	13399182 22352 10234 202929 0.0030005785 0.058910501 590 1.0501e-05 0.004001028424 0.956579714166 0.002548419899363
290	13421534 22352 10234 202929 0.0030005785 0.058910501 590 1.0501e-05 0.004001028424 0.956579714166 0.002548419899363
291	13443886 320 17299 207388 0.005 0.059999864908 12 1 1 12 12
292	13444206 371 17300 207389 0.005 0.059999864908 12 -8e-12 8e-12 1.8e-11 2.42e-22
293	13444577 322 17301 207390 0.005 0.059999864908 12 -3 6 20 112
294	13444899 307 17302 207377 0.005 0.059998979453 12 1 1 12 12
295	13445206 372 17303 207378 0.005 0.059998979453 12 -1.7e-11 0 -9.9e-11 1.055e-21
296	13445578 319 17304 207379 0.005 0.059998979453 12 -13 0 -69 565
297	13445897 318 17305 207416 0.005 0.060000447371 12 1 1 12 12
298	13446215 366 17306 207417 0.005 0.060000447371 12 -7e-12 7e-12 1.8e-11 3.26e-22
299	13446581 322 17307 207418 0.005 0.060000447371 12 -5 5 8 164
300	13446903 313 17308 207409 0.005 0.06000008231 12 1 1 12 12
301	13447216 359 17309 207410 0.005 0.06000008231 12 -2e-12 1e-11 3.9e-11 2.91e-22
302	13447575 314 17310 207411 0.005 0.06000008231 12 -1 8 32 176
0	13447889 386807 208266 416482 0.060250576 0.120501344 18078 0 1 9039 9039
3	13834696 294384 208276 416493 0.0602491545 0.1205085785 12052 0 1 6026 6026
4	14129080 146496 208287 416411 0.0602341545 0.1204835785 6020 0 1 3010 3010
6	14275576 119830 208300 416461 0.06026 0.1205 6025 64 64 385600 24678400
7	14395406 143930 208300 416461 0.06026 0.1205 6025 385664 771200 3485052800 2.0905195044864e+15
8	14539336 113805 208300 416461 0.06026 0.1205 6025 0 0 0 0
21	14653141 15075 208437 416481 0.060301344 0.120501344 603 64 64 38592 2469888
22	14668216 16884 208437 416481 0.060301344 0.120501344 603 38656 77184 34925760 2097739272192
23	14685100 19296 208437 416481 0.060301344 0.120501344 603 1.344e-06 1.344e-06 0.00081043200000001 1.089220608e-09
27	14704396 56660 208265 416475 0.060250672 0.120500672 2411 64 64 154304 9875456
28	14761056 66304 208265 416475 0.060250672 0.120500672 2411 154304 308544 557963264 1.339098600489e+14
29	14827360 62691 208265 416475 0.060250672 0.120500672 2411 0 6.72e-07 0.00081043199999998 5.4461030400001e-10
78	14890051 159244 208275 416492 0.0602585785 0.1205085785 6026 64 64 385664 24682496
79	15049295 183348 208275 416492 0.0602585785 0.1205085785 6026 385664 771264 3485824064 2.0911143526441e+15
80	15232643 212468 208275 416492 0.0602585785 0.1205085785 6026 8.5785e-06 0.001000506888 0.68967400766506 0.00043496557593867
117	15445111 17184 217490 410287 0.062999927312 0.1189099225 600 64 64 38400 2457600
118	15462295 18984 217490 410287 0.062999927312 0.1189099225 600 37824 76160 34195200 2022580633600
119	15481279 23940 217490 410287 0.062999927312 0.1189099225 600 9.9225e-06 0.004000394388 0.991840081895 0.0026744436892364
123	15505219 65094 208286 416410 0.0602592505 0.1204835785 2410 64 64 154240 9871360
124	15570313 74734 208286 416410 0.0602592505 0.1204835785 2410 154304 308480 557654720 1.3381466064896e+14
125	15645047 84398 208286 416410 0.0602592505 0.1204835785 2410 8.5785e-06 9.914398e-06 0.021488459094999 1.918764370832e-07
150	15729445 131880 208295 416456 0.06026 0.1205 6025 18 18 108450 1952100
151	15861325 149955 208295 416456 0.06026 0.1205 6025 1e-05 1e-05 0.060250000000008 6.0250000000003e-07
152	16011280 12596 208410 416454 0.0603 0.1205 603 18 18 10854 195372
153	16023876 53555 208330 416455 0.060275 0.1205 2410 18 18 43380 780840
154	16077431 198031 208296 416467 0.06026 0.1205 9038 64 64 578432 37019648
155	16275462 188993 208296 416467 0.06026 0.1205 9038 0 0 0 0
156	16464455 377986 208296 416467 0.06026 0.1205 18076 0 1 9038 9038
157	16842441 387024 208296 416467 0.06026 0.1205 18076 0 64 578432 37019648
158	17229465 198031 208296 416467 0.06026 0.1205 9038 64 64 578432 37019648
159	17427496 188993 208296 416467 0.06026 0.1205 9038 0 0 0 0
160	17616489 131880 208299 416460 0.06026 0.1205 6025 64 64 385600 24678400
161	17748369 125855 208299 416460 0.06026 0.1205 6025 0 0 0 0
162	17874224 251710 208299 416460 0.06026 0.1205 12050 0 1 6025 6025
163	18125934 257735 208299 416460 0.06026 0.1205 12050 0 64 385600 24678400
164	18383669 206629 208266 416482 0.060250672 0.120501344 9039 64 64 578496 37023744
165	18590298 53555 208334 416466 0.060275 0.1205 2410 64 64 154240 9871360
166	18643853 51145 208334 416466 0.060275 0.1205 2410 0 0 0 0
167	18694998 107805 208264 416474 0.060250672 0.120500672 4821 0 1 2410 2410
168	18802803 110215 208264 416474 0.060250672 0.120500672 4821 0 64 154240 9871360
169	18913018 12596 208426 416470 0.0603 0.1205 603 64 64 38592 2469888
170	18925614 11993 208426 416470 0.0603 0.1205 603 0 0 0 0
171	18937607 27068 208426 416480 0.0603 0.120501344 1206 0 1 603 603
172	18964675 27671 208426 416480 0.0603 0.120501344 1206 0 64 38592 2469888
173	18992346 234411 208267 416483 0.060251248 0.12050192 9039 64 64 578496 37023744
174	19226757 244053 208268 416484 0.0602512505 0.1205019225 9039 64 64 578496 37023744
175	19470810 244080 208262 416484 0.0602505785 0.1205019225 9040 64 64 578560 37027840
176	19714890 309169 208263 416485 0.0602505785 0.1205019225 9040 5.785e-07 1.9225e-06 0.0068505039999998 6.5345172999995e-09
177	20024059 282694 208263 416485 0.0602505785 0.1205019225 9040 578496 1156992 7844405760 7.0591005561651e+15
178	20306753 162702 208274 416491 0.0602585785 0.1205085785 6026 64 64 385664 24682496
179	20469455 210910 208274 416491 0.0602585785 0.1205085785 6026 8.5785e-06 8.5785e-06 0.051694041000002 4.4345733071847e-07
180	20680365 318248 208274 416491 0.0602585785 0.1205085785 12052 0 100 132358 8479918
181	20998613 327922 208274 416491 0.0602585785 0.1205085785 12052 0 6400 8470912 34733744128
186	21326535 165270 208276 416493 0.0602585785 0.1205085785 6026 64 64 385664 24682496
187	21491805 82278 208287 416411 0.0602592505 0.1204835785 3010 64 64 192640 12328960
188	21574083 165270 208277 416494 0.0602591545 0.1205091545 6026 64 64 385664 24682496
189	21739353 82278 208288 416412 0.0602598265 0.1204841545 3010 64 64 192640 12328960
190	21821631 160528 208278 416495 0.060259157 0.120509157 6026 64 64 385664 24682496
191	21982159 160528 208278 416495 0.060259157 0.120509157 6026 64 64 385664 24682496
192	22142687 79772 208289 416413 0.060259829 0.120484157 3010 64 64 192640 12328960
193	22222459 79772 208289 416413 0.060259829 0.120484157 3010 64 64 192640 12328960
194	22302231 209010 208279 416496 0.060259157 0.120509157 6026 9.157e-06 0.001001085388 0.69316004866503 0.00043576554544029
195	22511241 184632 208279 416496 0.060259157 0.120509157 6026 385792 771392 3486595392 2.0920068223345e+15
196	22695873 103443 208290 416414 0.060259829 0.120484157 3010 9.157e-06 0.004000972888 1.01506982599 0.0026758089941289
197	22799316 91812 208290 416414 0.060259829 0.120484157 3010 192128 384704 868132160 2.5969167157248e+14
198	22891128 160502 208281 416451 0.060259157 0.120499157 6025 64 64 385600 24678400
199	23051630 208977 208281 416451 0.060259157 0.120499157 6025 9.157e-06 0.001001085388 0.69315089166503 0.00043576546158964
200	23260607 308954 208281 416451 0.060259157 0.120499157 12050 0 1 6025 6025
201	23569561 314979 208281 416451 0.060259157 0.120499157 12050 0 64 385600 24678400
202	23884540 160502 208281 416451 0.060259157 0.120499157 6025 64 64 385600 24678400
203	24045042 208977 208281 416451 0.060259157 0.120499157 6025 9.157e-06 0.001001085388 0.69315089166503 0.00043576546158964
204	24254019 160502 208282 416452 0.060259157 0.120499157 6025 64 64 385600 24678400
205	24414521 184602 208282 416452 0.060259157 0.120499157 6025 385664 771200 3485052800 2.0905195044864e+15
206	24599123 208977 208282 416452 0.060259157 0.120499157 6025 9.157e-06 0.001001085388 0.69315089166503 0.00043576546158964
207	24808100 208977 208282 416452 0.060259157 0.120499157 6025 9.157e-06 0.001001085388 0.69315089166503 0.00043576546158964
219	25017077 159218 208283 416453 0.0602592505 0.1204992505 6025 0 0 0 0
220	25176295 79268 208294 416418 0.0602599225 0.1204842505 3010 0 0 0 0
225	25255563 65070 208285 416409 0.0602592505 0.1204835785 2410 64 64 154240 9871360
226	25320633 84350 208285 416409 0.0602592505 0.1204835785 2410 8.5785e-06 9.2505e-06 0.021483944999999 1.917907070625e-07
227	25404983 125344 208285 416409 0.0602592505 0.1204835785 4820 0 1 2410 2410
228	25530327 127754 208285 416409 0.0602592505 0.1204835785 4820 0 64 154240 9871360
234	25658081 79772 208292 416416 0.060259829 0.120484157 3010 64 64 192640 12328960
235	25737853 103443 208292 416416 0.060259829 0.120484157 3010 9.157e-06 0.004000972888 1.01506982599 0.0026758089941289
236	25841296 153524 208292 416416 0.060259829 0.120484157 6020 0 1 3010 3010
237	25994820 156534 208292 416416 0.060259829 0.120484157 6020 0 64 192640 12328960
238	26151354 79772 208292 416416 0.060259829 0.120484157 3010 64 64 192640 12328960
239	26231126 103443 208292 416416 0.060259829 0.120484157 3010 9.157e-06 0.004000972888 1.01506982599 0.0026758089941289
240	26334569 62696 208293 416417 0.060259829 0.120484157 2410 64 64 154240 9871360
241	26397265 72336 208293 416417 0.060259829 0.120484157 2410 154304 308480 557654720 1.3381466064896e+14
242	26469601 79611 208293 416417 0.060259829 0.120484157 2410 9.157e-06 1.0492898e-05 0.022882644094999 2.1754512027861e-07
243	26549212 79611 208293 416417 0.060259829 0.120484157 2410 9.157e-06 1.0492898e-05 0.022882644094999 2.1754512027861e-07
244	26628823 79772 208293 416417 0.060259829 0.120484157 3010 64 64 192640 12328960
245	26708595 91812 208293 416417 0.060259829 0.120484157 3010 192064 384640 867939520 2.5958056298496e+14
246	26800407 103443 208293 416417 0.060259829 0.120484157 3010 9.157e-06 0.004000972888 1.01506982599 0.0026758089941289
247	26903850 103443 208293 416417 0.060259829 0.120484157 3010 9.157e-06 0.004000972888 1.01506982599 0.0026758089941289
263	27007293 16254 208469 416177 0.0603099225 0.1204099225 602 64 64 38528 2465792
264	27023547 21070 208469 416177 0.0603099225 0.1204099225 602 9.9225e-06 9.9225e-06 0.0059733449999999 5.9270515762501e-08
265	27044617 32994 208469 416177 0.0603099225 0.1204099225 1202 0 40 19961 528925
266	27077611 34880 208469 416177 0.0603099225 0.1204099225 1202 0 2560 1277504 2166476800
287	27112491 17076 217514 410301 0.063000505812 0.118910501 600 64 64 38400 2457600
288	27129567 18876 217514 410301 0.063000505812 0.118910501 600 37824 76160 34195200 2022580633600
[...]
172	217535038 28781 3123624 3331006 0.904 0.964001344 1202 0 64 38464 2461696
173	217563819 242831 3123485 3331613 0.903940576 0.964040576 9016 64 64 577024 36929536
174	217806650 252448 3123486 3331614 0.9039405785 0.9640405785 9016 64 64 577024 36929536
175	218059098 252448 3123486 3331614 0.9039405785 0.9640405785 9016 64 64 577024 36929536
176	218311546 317363 3123487 3331615 0.9039405785 0.9640405785 9016 5.785e-07 1.9225e-06 0.0068312439999998 6.5148463659995e-09
177	218628909 297528 3123487 3331615 0.9039405785 0.9640405785 9016 8677952 9254912 80841350912 7.251086372022e+17
178	218926437 168308 3123477 3331578 0.9039385785 0.9640385785 6011 64 64 384704 24621056
179	219094745 216396 3123477 3331578 0.9039385785 0.9640385785 6011 8.5785e-06 8.5785e-06 0.051565363500002 4.4235347078472e-07
180	219311141 330440 3123477 3331632 0.9039385785 0.964041381767 12070 0 100 138255 8955171
181	219641581 340227 3123477 3331632 0.9039385785 0.964041381767 12070 0 6400 8848320 36680380416
186	219981808 171773 3123646 3331625 0.904003137018 0.964040709767 6058 64 64 387712 24813568
187	220153581 84910 3123521 3331505 0.9039592505 0.9640335785 3004 64 64 192256 12304384
188	220238491 171773 3123647 3331626 0.904003713018 0.964041285767 6058 64 64 387712 24813568
189	220410264 84938 3123468 3331515 0.9039341545 0.9640341545 3005 64 64 192320 12308480
190	220495202 167057 3123648 3331627 0.904003715518 0.964041288267 6058 64 64 387712 24813568
191	220662259 167057 3123648 3331627 0.904003715518 0.964041288267 6058 64 64 387712 24813568
192	220829316 82437 3123469 3331516 0.903934157 0.964034157 3005 64 64 192320 12308480
193	220911753 82437 3123469 3331516 0.903934157 0.964034157 3005 64 64 192320 12308480
194	220994190 215518 3123649 3331628 0.904003715518 0.964041288267 6058 9.157e-06 0.001003715518 0.73938748700704 0.00047246016438883
195	221209708 197347 3123649 3331628 0.904003715518 0.964041288267 6058 5779392 6167040 36185742528 2.1622114308508e+17
196	221407055 105861 3123470 3331517 0.903934157 0.964034157 3005 9.157e-06 0.004002897638 1.016093308784 0.002680173056272
197	221512916 97462 3123470 3331517 0.903934157 0.964034157 3005 2892736 3084992 8981536320 2.6853852727357e+16
198	221610378 167057 3123651 3331630 0.904003715518 0.964041288267 6058 64 64 387712 24813568
199	221777435 215518 3123651 3331630 0.904003715518 0.964041288267 6058 9.157e-06 0.001003715518 0.73938748700704 0.00047246016438883
200	221992953 321998 3123651 3331630 0.904003715518 0.964041288267 12116 0 1 6058 6058
201	222314951 328056 3123651 3331630 0.904003715518 0.964041288267 12116 0 64 387712 24813568
202	222643007 167057 3123651 3331630 0.904003715518 0.964041288267 6058 64 64 387712 24813568
203	222810064 215518 3123651 3331630 0.904003715518 0.964041288267 6058 9.157e-06 0.001003715518 0.73938748700704 0.00047246016438883
204	223025582 167057 3123652 3331631 0.904003715518 0.964041288267 6058 64 64 387712 24813568
205	223192639 197347 3123652 3331631 0.904003715518 0.964041288267 6058 5779264 6166912 36184967104 2.1621187963424e+17
206	223389986 215518 3123652 3331631 0.904003715518 0.964041288267 6058 9.157e-06 0.001003715518 0.73938748700704 0.00047246016438883
207	223605504 215518 3123652 3331631 0.904003715518 0.964041288267 6058 9.157e-06 0.001003715518 0.73938748700704 0.00047246016438883
219	223821022 165715 3123653 3331632 0.904003809018 0.964041381767 6058 0 0 0 0
220	223986737 81933 3123474 3331521 0.9039342505 0.9640342505 3005 0 0 0 0
225	224068670 67312 3123519 3331503 0.9039592505 0.9640335785 2404 64 64 153856 9846784
226	224135982 86544 3123519 3331503 0.9039592505 0.9640335785 2404 8.5785e-06 9.2505e-06 0.021430457999999 1.91313219825e-07
227	224222526 129835 3123519 3331503 0.9039592505 0.9640335785 4808 0 1 2404 2404
228	224352361 132239 3123519 3331503 0.9039592505 0.9640335785 4808 0 64 153856 9846784
234	224484600 82437 3123472 3331519 0.903934157 0.964034157 3005 64 64 192320 12308480
235	224567037 105861 3123472 3331519 0.903934157 0.964034157 3005 9.157e-06 0.004002897638 1.016093308784 0.002680173056272
236	224672898 158864 3123472 3331519 0.903934157 0.964034157 6010 0 1 3005 3005
237	224831762 161869 3123472 3331519 0.903934157 0.964034157 6010 0 64 192320 12308480
238	224993631 82437 3123472 3331519 0.903934157 0.964034157 3005 64 64 192320 12308480
239	225076068 105861 3123472 3331519 0.903934157 0.964034157 3005 9.157e-06 0.004002897638 1.016093308784 0.002680173056272
240	225181929 64966 3123473 3331520 0.903934157 0.964034157 2405 64 64 153920 9850880
241	225246895 76991 3123473 3331520 0.903934157 0.964034157 2405 2314112 2467968 5750451200 1.375430698111e+16
242	225323886 81839 3123473 3331520 0.903934157 0.964034157 2405 9.157e-06 1.0460767e-05 0.022833469851999 2.1705964083015e-07
243	225405725 81839 3123473 3331520 0.903934157 0.964034157 2405 9.157e-06 1.0460767e-05 0.022833469851999 2.1705964083015e-07
244	225487564 82437 3123473 3331520 0.903934157 0.964034157 3005 64 64 192320 12308480
245	225570001 97462 3123473 3331520 0.903934157 0.964034157 3005 2892672 3084928 8981344000 2.6852703103017e+16
246	225667463 105861 3123473 3331520 0.903934157 0.964034157 3005 9.157e-06 0.004002897638 1.016093308784 0.002680173056272
247	225773324 105861 3123473 3331520 0.903934157 0.964034157 3005 9.157e-06 0.004002897638 1.016093308784 0.002680173056272
263	225879185 16828 3123754 3331135 0.9040099225 0.9640099225 601 64 64 38464 2461696
264	225896013 21636 3123754 3331135 0.9040099225 0.9640099225 601 9.9225e-06 9.9225e-06 0.0059634224999999 5.9172059756251e-08
265	225917649 33962 3123754 3331135 0.9040099225 0.9640099225 1201 0 40 20013 532929
266	225951611 35847 3123754 3331135 0.9040099225 0.9640099225 1201 0 2560 1280832 2182877184
287	225987458 17471 3138019 3330790 0.908002897638 0.963910501 600 64 64 38400 2457600
288	226004929 19871 3138019 3330790 0.908002897638 0.963910501 600 578624 616960 358675200 2.144868929536e+14
289	226024800 24022 3138019 3330790 0.908002897638 0.963910501 600 1.0501e-05 0.004002897638 0.993259838932 0.0026799559966311
290	226048822 24022 3138019 3330790 0.908002897638 0.963910501 600 1.0501e-05 0.004002897638 0.993259838932 0.0026799559966311
291	226072844 347 3127894 3317981 0.905000217067 0.960000179359 12 1 1 12 12
292	226073191 396 3127895 3317982 0.905000217067 0.960000179359 12 -4e-12 8e-12 5.3e-11 3.77e-22
293	226073587 347 3127896 3317983 0.905000217067 0.960000179359 12 1 6 47 223
294	226073934 348 3127873 3317985 0.904999962967 0.960000455273 12 1 1 12 12
295	226074282 403 3127874 3317986 0.904999962967 0.960000455273 12 -6e-12 1.2e-11 1.9e-11 3.85e-22
296	226074685 355 3127875 3317987 0.904999962967 0.960000455273 12 -5 10 9 221
297	226075040 346 3127922 3318013 0.905004758916 0.960004804539 12 1 1 12 12
298	226075386 412 3127923 3318014 0.905004758916 0.960004804539 12 7e-11 7.7e-11 8.83e-10 6.5051e-20
299	226075798 358 3127924 3318015 0.905004758916 0.960004804539 12 54 61 694 40190
300	226076156 343 3127914 3318005 0.905003912018 0.9600031776 12 1 1 12 12
301	226076499 411 3127915 3318006 0.905003912018 0.9600031776 12 4.7e-11 6e-11 6.27e-10 3.2919e-20
302	226076910 355 3127916 3318007 0.905003912018 0.9600031776 12 36 48 501 21049
vector 303 small_network.node1.bgOut maxPacketSize:IntervalMaxVector(packetBytes) ETV
vector 304 small_network.node1.bgOut minPacketSize:IntervalMinVector(packetBytes) ETV
vector 305 small_network.node1.bgOut bandwidth:IntervalSumVector(packetBytes) ETV
vector 306 small_network.node1.phy[0].shaper.queue[0] maxPacketSize:IntervalMaxVector(packetBytes) ETV
vector 307 small_network.node1.phy[0].shaper.queue[0] minPacketSize:IntervalMinVector(packetBytes) ETV
vector 308 small_network.node1.phy[0].shaper.queue[0] bandwidth:IntervalSumVector(packetBytes) ETV
vector 309 small_network.node1.phy[0].shaper.queue[7] maxPacketSize:IntervalMaxVector(packetBytes) ETV
vector 310 small_network.node1.phy[0].shaper.queue[7] minPacketSize:IntervalMinVector(packetBytes) ETV
vector 311 small_network.node1.phy[0].shaper.queue[7] bandwidth:IntervalSumVector(packetBytes) ETV
vector 312 small_network.node1.phy[0].shaper.queue[5] maxPacketSize:IntervalMaxVector(packetBytes) ETV
vector 313 small_network.node1.phy[0].shaper.queue[5] minPacketSize:IntervalMinVector(packetBytes) ETV
vector 314 small_network.node1.phy[0].shaper.queue[5] bandwidth:IntervalSumVector(packetBytes) ETV
0	226078434 241585 3331753 3456228 0.964040576 1.000000576 10787 0 1 5393 5393
1	226320019 24 3456228 3456228 0.000009733 0.000009733 1 0 0 0 0
2	226320043 25 3456228 3456228 0.0000189835 0.0000189835 1 0 0 0 0
3	226320068 184249 3331634 3456228 0.964041285767 0.9999991545 7285 0 1 3642 3642
4	226504317 90181 3331901 3456228 0.9640341545 0.9999841545 3577 0 1 1788 1788
5	226594498 24 3456228 3456228 0.000010405 0.000010405 1 0 0 0 0
6	226594522 75113 3331752 3456218 0.96405 1 3596 64 64 230144 14729216
7	226669635 93093 3331752 3456218 0.96405 1 3596 6169920 6400000 22600716160 1.4206046925853e+17
8	226762728 71517 3331752 3456218 0.96405 1 3596 0 0 0 0
21	226834245 9334 3332247 3455902 0.964101344 0.999901344 359 64 64 22976 1470464
22	226843579 10770 3332247 3455902 0.964101344 0.999901344 359 617088 640000 225647296 1.4184504680038e+14
23	226854349 11847 3332247 3455902 0.964101344 0.999901344 359 1.344e-06 1.344e-06 0.000482496 6.48474624e-10
27	226866196 35231 3331771 3456136 0.964050672 0.999975 1438 64 64 92032 5890048
28	226901427 42421 3331771 3456136 0.964050672 0.999975 1438 2468032 2560000 3615155008 9.089572507136e+15
29	226943848 38826 3331771 3456136 0.964050672 0.999975 1438 0 6.72e-07 0.00048316800000001 3.24688896e-10
78	226982674 99366 3331642 3456202 0.964042053767 0.9999985785 3641 64 64 233024 14913536
79	227082040 117605 3331633 3456202 0.964041381767 0.9999985785 3642 6166976 6400000 22884463296 1.4381073966539e+17
80	227199645 131108 3331633 3456202 0.964041381767 0.9999985785 3642 8.5785e-06 0.0010026168 0.41648887222701 0.0002592509165732
117	227330753 10169 3345383 3451743 0.96800194388 0.9989099225 350 64 64 22400 1433600
118	227340922 11569 3345383 3451743 0.96800194388 0.9989099225 350 617024 639360 219867200 1.381334506496e+14
119	227352491 13905 3345383 3451743 0.96800194388 0.9989099225 350 9.9225e-06 0.0040019668 0.579125154172 0.0015623346987836
123	227366396 40273 3331900 3456167 0.9640592505 0.9999835785 1438 64 64 92032 5890048
124	227406669 47463 3331900 3456167 0.9640592505 0.9999835785 1438 2468032 2560000 3615155008 9.089572507136e+15
125	227454132 51786 3331900 3456167 0.9640592505 0.9999835785 1438 8.5785e-06 9.89142e-06 0.012821718492 1.1448843937321e-07
150	227505918 82305 3331747 3456213 0.96405 1 3596 18 18 64728 1165104
151	227588223 93093 3331747 3456213 0.96405 1 3596 1e-05 1e-05 0.03596 3.5960000000001e-07
152	227681316 7877 3332220 3456211 0.9641 1 360 18 18 6480 116640
153	227689193 33413 3331746 3456212 0.96405 1 1439 18 18 25902 466236
154	227722606 123595 3331748 3456224 0.96405 1 5395 64 64 345280 22097920
155	227846201 118200 3331748 3456224 0.96405 1 5395 0 0 0 0
156	227964401 236400 3331748 3456224 0.96405 1 10790 0 1 5395 5395
157	228200801 241795 3331748 3456224 0.96405 1 10790 0 64 345280 22097920
158	228442596 123595 3331748 3456224 0.96405 1 5395 64 64 345280 22097920
159	228566191 118200 3331748 3456224 0.96405 1 5395 0 0 0 0
160	228684391 82305 3331751 3456217 0.96405 1 3596 64 64 230144 14729216
161	228766696 78709 3331751 3456217 0.96405 1 3596 0 0 0 0
162	228845405 157418 3331751 3456217 0.96405 1 7192 0 1 3596 3596
163	229002823 161014 3331751 3456217 0.96405 1 7192 0 64 230144 14729216
164	229163837 128667 3331753 3456219 0.96405 1 5393 64 64 345152 22089728
165	229292504 33413 3331757 3456223 0.96405 1 1439 64 64 92096 5894144
166	229325917 31974 3331757 3456223 0.96405 1 1439 0 0 0 0
167	229357891 67205 3331757 3456223 0.96405 1 2877 0 1 1439 1439
168	229425096 68644 3331757 3456223 0.96405 1 2877 0 64 92096 5894144
169	229493740 7877 3332236 3456227 0.9641 1 360 64 64 23040 1474560
170	229501617 7517 3332236 3456227 0.9641 1 360 0 0 0 0
171	229509134 16851 3332236 3456227 0.9641 1 719 0 1 360 360
172	229525985 17211 3332236 3456227 0.9641 1 719 0 64 23040 1474560
173	229543196 145225 3331767 3456195 0.964050576 0.999990576 5392 64 64 345088 22085632
174	229688421 150976 3331768 3456196 0.9640505785 0.9999905785 5392 64 64 345088 22085632
175	229839397 150976 3331768 3456196 0.9640505785 0.9999905785 5392 64 64 345088 22085632
176	229990373 189798 3331769 3456197 0.9640505785 0.9999905785 5392 5.785e-07 1.9225e-06 0.0040849359999998 3.8949356200002e-09
177	230180171 177936 3331769 3456197 0.9640505785 0.9999905785 5392 9254976 9600000 50833015296 4.7928115089202e+17
178	230358107 100688 3331727 3456201 0.9640485785 0.9999985785 3596 64 64 230144 14729216
179	230458795 129456 3331727 3456201 0.9640485785 0.9999985785 3596 8.5785e-06 8.5785e-06 0.030848285999997 2.6463202145101e-07
180	230588251 197855 3331641 3456201 0.964042053767 0.9999985785 7237 0 100 78772 5014418
181	230786106 203669 3331641 3456201 0.964042053767 0.9999985785 7237 0 6400 5041408 20539056128
186	230989775 103037 3331634 3456203 0.964041381767 0.9999985785 3642 64 64 233088 14917632
187	231092812 50442 3331901 3456168 0.9640592505 0.9999835785 1788 64 64 114432 7323648
188	231143254 103037 3331635 3456204 0.964041957767 0.9999991545 3642 64 64 233088 14917632
189	231246291 50442 3331911 3456169 0.9640598265 0.9999841545 1788 64 64 114432 7323648
190	231296733 100193 3331636 3456205 0.964041960267 0.999999157 3642 64 64 233088 14917632
191	231396926 100193 3331636 3456205 0.964041960267 0.999999157 3642 64 64 233088 14917632
192	231497119 48948 3331912 3456170 0.964059829 0.999984157 1788 64 64 114432 7323648
193	231546067 48948 3331912 3456170 0.964059829 0.999984157 1788 64 64 114432 7323648
194	231595015 129062 3331637 3456206 0.964041960267 0.999999157 3642 9.157e-06 0.0010031953 0.41859576922699 0.00025973401303829
195	231724077 118403 3331637 3456206 0.964041960267 0.999999157 3642 6167104 6400128 22884929472 1.4381659814767e+17
196	231842480 62771 3331913 3456171 0.964059829 0.999984157 1788 9.157e-06 0.0040025453 0.59298123066401 0.0015631346681308
197	231905251 57888 3331913 3456171 0.964059829 0.999984157 1788 3085056 3199424 5618325120 1.7656077032169e+16
198	231963139 100193 3331639 3456208 0.964041960267 0.999999157 3642 64 64 233088 14917632
199	232063332 129062 3331639 3456208 0.964041960267 0.999999157 3642 9.157e-06 0.0010031953 0.41859576922699 0.00025973401303829
200	232192394 193102 3331639 3456208 0.964041960267 0.999999157 7284 0 1 3642 3642
201	232385496 196744 3331639 3456208 0.964041960267 0.999999157 7284 0 64 233088 14917632
202	232582240 100193 3331639 3456208 0.964041960267 0.999999157 3642 64 64 233088 14917632
203	232682433 129062 3331639 3456208 0.964041960267 0.999999157 3642 9.157e-06 0.0010031953 0.41859576922699 0.00025973401303829
204	232811495 100193 3331640 3456209 0.964041960267 0.999999157 3642 64 64 233088 14917632
205	232911688 118403 3331640 3456209 0.964041960267 0.999999157 3642 6166976 6400000 22884463296 1.4381073966539e+17
206	233030091 129062 3331640 3456209 0.964041960267 0.999999157 3642 9.157e-06 0.0010031953 0.41859576922699 0.00025973401303829
207	233159153 129062 3331640 3456209 0.964041960267 0.999999157 3642 9.157e-06 0.0010031953 0.41859576922699 0.00025973401303829
219	233288215 99395 3331641 3456210 0.964042053767 0.9999992505 3642 0 0 0 0
220	233387610 48654 3331917 3456175 0.9640599225 0.9999842505 1788 0 0 0 0
225	233436264 40264 3331899 3456166 0.9640592505 0.9999835785 1438 64 64 92032 5890048
226	233476528 51768 3331899 3456166 0.9640592505 0.9999835785 1438 8.5785e-06 9.2505e-06 0.012819051 1.144377745875e-07
227	233528296 77661 3331899 3456166 0.9640592505 0.9999835785 2876 0 1 1438 1438
228	233605957 79099 3331899 3456166 0.9640592505 0.9999835785 2876 0 64 92032 5890048
234	233685056 48948 3331915 3456173 0.964059829 0.999984157 1788 64 64 114432 7323648
235	233734004 62771 3331915 3456173 0.964059829 0.999984157 1788 9.157e-06 0.0040025453 0.59298123066401 0.0015631346681308
236	233796775 94320 3331915 3456173 0.964059829 0.999984157 3576 0 1 1788 1788
237	233891095 96108 3331915 3456173 0.964059829 0.999984157 3576 0 64 114432 7323648
238	233987203 48948 3331915 3456173 0.964059829 0.999984157 1788 64 64 114432 7323648
239	234036151 62771 3331915 3456173 0.964059829 0.999984157 1788 9.157e-06 0.0040025453 0.59298123066401 0.0015631346681308
240	234098922 38842 3331916 3456174 0.964059829 0.999984157 1438 64 64 92032 5890048
241	234137764 46032 3331916 3456174 0.964059829 0.999984157 1438 2468032 2560000 3615155008 9.089572507136e+15
242	234183796 48929 3331916 3456174 0.964059829 0.999984157 1438 9.157e-06 1.046992e-05 0.013653601492 1.2980441198395e-07
243	234232725 48929 3331916 3456174 0.964059829 0.999984157 1438 9.157e-06 1.046992e-05 0.013653601492 1.2980441198395e-07
244	234281654 48948 3331916 3456174 0.964059829 0.999984157 1788 64 64 114432 7323648
245	234330602 57888 3331916 3456174 0.964059829 0.999984157 1788 3084992 3199360 5618210688 1.7655357893878e+16
246	234388490 62771 3331916 3456174 0.964059829 0.999984157 1788 9.157e-06 0.0040025453 0.59298123066401 0.0015631346681308
247	234451261 62771 3331916 3456174 0.964059829 0.999984157 1788 9.157e-06 0.0040025453 0.59298123066401 0.0015631346681308
263	234514032 10052 3332279 3455934 0.9641099225 0.9999099225 359 64 64 22976 1470464
264	234524084 12924 3332279 3455934 0.9641099225 0.9999099225 359 9.9225e-06 9.9225e-06 0.0035621775 3.534570624375e-08
265	234537008 19954 3332279 3455934 0.9641099225 0.9999099225 709 0 40 11720 310814
266	234556962 21070 3332279 3455934 0.9641099225 0.9999099225 709 0 2560 750080 1273094144
287	234578032 10106 3345391 3451757 0.96800252238 0.998910501 350 64 64 22400 1433600
288	234588138 11506 3345391 3451757 0.96800252238 0.998910501 350 617024 639360 219867200 1.381334506496e+14
289	234599644 13842 3345391 3451757 0.96800252238 0.998910501 350 1.0501e-05 0.0040025453 0.579327629172 0.0015630048637188
290	234613486 13842 3345391 3451757 0.96800252238 0.998910501 350 1.0501e-05 0.0040025453 0.579327629172 0.0015630048637188
291	234627328 200 3335245 3438948 0.964999769367 0.995000256844 7 1 1 7 7
292	234627528 227 3335246 3438949 0.964999769367 0.995000256844 7 -6e-12 8e-12 3e-12 1.23e-22
293	234627755 204 3335247 3438950 0.964999769367 0.995000256844 7 -4 3 -7 45
294	234627959 203 3335266 3438955 0.965000430243 0.995000625133 7 1 1 7 7
295	234628162 231 3335267 3438956 0.965000430243 0.995000625133 7 1e-12 9e-12 3.8e-11 2.64e-22
296	234628393 203 3335268 3438957 0.965000430243 0.995000625133 7 1 7 28 144
297	234628596 203 3335293 3438980 0.965004375339 0.995004817107 7 1 1 7 7
298	234628799 245 3335294 3438981 0.965004375339 0.995004817107 7 6.7e-11 7.7e-11 4.97e-10 3.5357e-20
299	234629044 210 3335295 3438982 0.965004375339 0.995004817107 7 52 60 387 21439
300	234629254 198 3335286 3438972 0.965002993267 0.995002687704 7 1 1 7 7
301	234629452 240 3335287 3438973 0.965002993267 0.995002687704 7 3.9e-11 5.2e-11 3.21e-10 1.4857e-20
302	234629692 205 3335288 3438974 0.965002993267 0.995002687704 7 33 40 257 9485
303	234629897 17 3456214 3456214 1 1 1 64 64 64 4096
304	234629914 17 3456214 3456214 1 1 1 64 64 64 4096
305	234629931 22 3456214 3456214 1 1 1 7680064 7680064 7680064 58983383044096
306	234629953 17 3456217 3456217 1 1 1 64 64 64 4096
307	234629970 17 3456217 3456217 1 1 1 64 64 64 4096
308	234629987 22 3456217 3456217 1 1 1 6400064 6400064 6400064 40960819204096
309	234630009 17 3456223 3456223 1 1 1 64 64 64 4096
310	234630026 17 3456223 3456223 1 1 1 64 64 64 4096
311	234630043 22 3456223 3456223 1 1 1 2560064 2560064 2560064 6553927684096
312	234630065 17 3456227 3456227 1 1 1 64 64 64 4096
313	234630082 17 3456227 3456227 1 1 1 64 64 64 4096
314	234630099 21 3456227 3456227 1 1 1 640064 640064 640064 409681924096

